api/pglib_opf_case500_tamu__api.m
%%%%%%%%%%%%%%%%%%%%%%%%%%%%%%%%%%%%%%%%%%%%%%%%%%%%%%%%%%%%%%%%%%%%%%%%%%%
%%%%                                                                  %%%%%
%%%%    IEEE PES Power Grid Library - Optimal Power Flow - v18.08     %%%%%
%%%%          (https://github.com/power-grid-lib/pglib-opf)           %%%%%
%%%%             Benchmark Group - Active Power Increase              %%%%%
%%%%                        08 - August - 2018                        %%%%%
%%%%                                                                  %%%%%
%%%%%%%%%%%%%%%%%%%%%%%%%%%%%%%%%%%%%%%%%%%%%%%%%%%%%%%%%%%%%%%%%%%%%%%%%%%
function mpc = pglib_opf_case500_tamu__api
mpc.version = '2';
mpc.baseMVA = 100.0;

%% bus data
%	bus_i	type	Pd	Qd	Gs	Bs	area	Vm	Va	baseKV	zone	Vmax	Vmin
mpc.bus = [
	1	 1	 0.0	 0.0	 0.0	 0.0	 1	    1.00000	    0.00000	 138.0	 2	    1.10000	    0.90000;
	2	 1	 54.27	 11.41	 0.0	 0.0	 1	    1.00000	    0.00000	 138.0	 2	    1.10000	    0.90000;
	3	 1	 0.0	 0.0	 0.0	 0.0	 1	    1.00000	    0.00000	 138.0	 2	    1.10000	    0.90000;
	4	 1	 168.25	 35.38	 0.0	 0.0	 1	    1.00000	    0.00000	 138.0	 2	    1.10000	    0.90000;
	5	 1	 0.0	 0.0	 0.0	 0.0	 1	    1.00000	    0.00000	 138.0	 1	    1.10000	    0.90000;
	6	 1	 4.07	 0.86	 0.0	 0.0	 1	    1.00000	    0.00000	 138.0	 1	    1.10000	    0.90000;
	7	 1	 0.0	 0.0	 0.0	 0.0	 1	    1.00000	    0.00000	 345.0	 2	    1.10000	    0.90000;
	8	 1	 0.0	 0.0	 0.0	 0.0	 1	    1.00000	    0.00000	 138.0	 2	    1.10000	    0.90000;
	9	 2	 0.0	 0.0	 0.0	 0.0	 1	    1.00000	    0.00000	 13.8	 2	    1.10000	    0.90000;
	10	 1	 0.0	 0.0	 0.0	 0.0	 1	    1.00000	    0.00000	 138.0	 2	    1.10000	    0.90000;
	11	 1	 3.13	 0.66	 0.0	 0.0	 1	    1.00000	    0.00000	 138.0	 2	    1.10000	    0.90000;
	12	 1	 0.0	 0.0	 0.0	 0.0	 1	    1.00000	    0.00000	 138.0	 1	    1.10000	    0.90000;
	13	 1	 47.12	 9.91	 0.0	 0.0	 1	    1.00000	    0.00000	 138.0	 1	    1.10000	    0.90000;
	14	 1	 0.0	 0.0	 0.0	 0.0	 1	    1.00000	    0.00000	 345.0	 1	    1.10000	    0.90000;
	15	 1	 0.0	 0.0	 0.0	 0.0	 1	    1.00000	    0.00000	 138.0	 1	    1.10000	    0.90000;
	16	 2	 0.0	 0.0	 0.0	 0.0	 1	    1.00000	    0.00000	 13.8	 1	    1.10000	    0.90000;
	17	 3	 0.0	 0.0	 0.0	 0.0	 1	    1.00000	    0.00000	 13.8	 1	    1.10000	    0.90000;
	18	 2	 0.0	 0.0	 0.0	 0.0	 1	    1.00000	    0.00000	 13.8	 1	    1.10000	    0.90000;
	19	 1	 0.0	 0.0	 0.0	 0.0	 1	    1.00000	    0.00000	 138.0	 2	    1.10000	    0.90000;
	20	 1	 5.76	 1.21	 0.0	 0.0	 1	    1.00000	    0.00000	 138.0	 2	    1.10000	    0.90000;
	21	 1	 0.0	 0.0	 0.0	 0.0	 1	    1.00000	    0.00000	 138.0	 2	    1.10000	    0.90000;
	22	 1	 188.55	 39.65	 0.0	 0.0	 1	    1.00000	    0.00000	 138.0	 2	    1.10000	    0.90000;
	23	 1	 0.0	 0.0	 0.0	 0.0	 1	    1.00000	    0.00000	 345.0	 1	    1.10000	    0.90000;
	24	 1	 0.0	 0.0	 0.0	 0.0	 1	    1.00000	    0.00000	 138.0	 1	    1.10000	    0.90000;
	25	 1	 2.89	 0.61	 0.0	 0.0	 1	    1.00000	    0.00000	 138.0	 1	    1.10000	    0.90000;
	26	 1	 27.46	 5.78	 0.0	 0.0	 1	    1.00000	    0.00000	 138.0	 1	    1.10000	    0.90000;
	27	 1	 0.0	 0.0	 0.0	 50.0	 1	    1.00000	    0.00000	 138.0	 1	    1.10000	    0.90000;
	28	 1	 79.79	 16.78	 0.0	 0.0	 1	    1.00000	    0.00000	 138.0	 1	    1.10000	    0.90000;
	29	 1	 0.0	 0.0	 0.0	 0.0	 1	    1.00000	    0.00000	 138.0	 2	    1.10000	    0.90000;
	30	 1	 126.76	 26.66	 0.0	 0.0	 1	    1.00000	    0.00000	 138.0	 2	    1.10000	    0.90000;
	31	 1	 0.0	 0.0	 0.0	 100.0	 1	    1.00000	    0.00000	 138.0	 2	    1.10000	    0.90000;
	32	 1	 12.38	 2.60	 0.0	 0.0	 1	    1.00000	    0.00000	 138.0	 2	    1.10000	    0.90000;
	33	 1	 0.0	 0.0	 0.0	 0.0	 1	    1.00000	    0.00000	 138.0	 2	    1.10000	    0.90000;
	34	 1	 31.70	 6.67	 0.0	 0.0	 1	    1.00000	    0.00000	 138.0	 2	    1.10000	    0.90000;
	35	 1	 0.0	 0.0	 0.0	 0.0	 1	    1.00000	    0.00000	 138.0	 2	    1.10000	    0.90000;
	36	 1	 54.97	 11.56	 0.0	 0.0	 1	    1.00000	    0.00000	 138.0	 2	    1.10000	    0.90000;
	37	 1	 0.0	 0.0	 0.0	 0.0	 1	    1.00000	    0.00000	 138.0	 1	    1.10000	    0.90000;
	38	 1	 0.16	 0.03	 0.0	 0.0	 1	    1.00000	    0.00000	 138.0	 1	    1.10000	    0.90000;
	39	 1	 0.0	 0.0	 0.0	 0.0	 1	    1.00000	    0.00000	 345.0	 1	    1.10000	    0.90000;
	40	 1	 0.0	 0.0	 0.0	 0.0	 1	    1.00000	    0.00000	 138.0	 1	    1.10000	    0.90000;
	41	 1	 73.53	 15.46	 0.0	 0.0	 1	    1.00000	    0.00000	 138.0	 1	    1.10000	    0.90000;
	42	 1	 0.0	 0.0	 0.0	 0.0	 1	    1.00000	    0.00000	 138.0	 2	    1.10000	    0.90000;
	43	 1	 5.66	 1.19	 0.0	 0.0	 1	    1.00000	    0.00000	 138.0	 2	    1.10000	    0.90000;
	44	 1	 0.0	 0.0	 0.0	 0.0	 1	    1.00000	    0.00000	 138.0	 2	    1.10000	    0.90000;
	45	 1	 2.57	 0.54	 0.0	 0.0	 1	    1.00000	    0.00000	 138.0	 2	    1.10000	    0.90000;
	46	 1	 0.0	 0.0	 0.0	 0.0	 1	    1.00000	    0.00000	 138.0	 1	    1.10000	    0.90000;
	47	 1	 55.04	 11.58	 0.0	 0.0	 1	    1.00000	    0.00000	 138.0	 1	    1.10000	    0.90000;
	48	 1	 0.0	 0.0	 0.0	 0.0	 1	    1.00000	    0.00000	 138.0	 1	    1.10000	    0.90000;
	49	 2	 0.0	 0.0	 0.0	 0.0	 1	    1.00000	    0.00000	 13.8	 1	    1.10000	    0.90000;
	50	 2	 0.0	 0.0	 0.0	 0.0	 1	    1.00000	    0.00000	 13.8	 1	    1.10000	    0.90000;
	51	 1	 0.44	 0.09	 0.0	 0.0	 1	    1.00000	    0.00000	 138.0	 1	    1.10000	    0.90000;
	52	 1	 29.66	 6.24	 0.0	 0.0	 1	    1.00000	    0.00000	 138.0	 1	    1.10000	    0.90000;
	53	 1	 0.0	 0.0	 0.0	 0.0	 1	    1.00000	    0.00000	 138.0	 2	    1.10000	    0.90000;
	54	 1	 44.14	 9.28	 0.0	 0.0	 1	    1.00000	    0.00000	 138.0	 2	    1.10000	    0.90000;
	55	 1	 0.0	 0.0	 0.0	 0.0	 1	    1.00000	    0.00000	 138.0	 1	    1.10000	    0.90000;
	56	 1	 2.85	 0.60	 0.0	 0.0	 1	    1.00000	    0.00000	 138.0	 1	    1.10000	    0.90000;
	57	 1	 0.0	 0.0	 0.0	 0.0	 1	    1.00000	    0.00000	 345.0	 1	    1.10000	    0.90000;
	58	 1	 0.0	 0.0	 0.0	 0.0	 1	    1.00000	    0.00000	 138.0	 1	    1.10000	    0.90000;
	59	 1	 178.71	 37.58	 0.0	 0.0	 1	    1.00000	    0.00000	 138.0	 1	    1.10000	    0.90000;
	60	 1	 0.0	 0.0	 0.0	 0.0	 1	    1.00000	    0.00000	 138.0	 1	    1.10000	    0.90000;
	61	 1	 0.25	 0.05	 0.0	 0.0	 1	    1.00000	    0.00000	 138.0	 1	    1.10000	    0.90000;
	62	 1	 0.0	 0.0	 0.0	 0.0	 1	    1.00000	    0.00000	 138.0	 1	    1.10000	    0.90000;
	63	 2	 0.0	 0.0	 0.0	 0.0	 1	    1.00000	    0.00000	 13.8	 1	    1.10000	    0.90000;
	64	 1	 44.10	 9.27	 0.0	 0.0	 1	    1.00000	    0.00000	 138.0	 1	    1.10000	    0.90000;
	65	 1	 0.0	 0.0	 0.0	 0.0	 1	    1.00000	    0.00000	 345.0	 1	    1.10000	    0.90000;
	66	 1	 0.0	 0.0	 0.0	 0.0	 1	    1.00000	    0.00000	 138.0	 1	    1.10000	    0.90000;
	67	 1	 5.79	 1.22	 0.0	 0.0	 1	    1.00000	    0.00000	 138.0	 1	    1.10000	    0.90000;
	68	 1	 0.0	 0.0	 0.0	 0.0	 1	    1.00000	    0.00000	 138.0	 1	    1.10000	    0.90000;
	69	 1	 21.51	 4.52	 0.0	 0.0	 1	    1.00000	    0.00000	 138.0	 1	    1.10000	    0.90000;
	70	 1	 0.0	 0.0	 0.0	 0.0	 1	    1.00000	    0.00000	 138.0	 1	    1.10000	    0.90000;
	71	 2	 0.0	 0.0	 0.0	 0.0	 1	    1.00000	    0.00000	 13.8	 1	    1.10000	    0.90000;
	72	 2	 0.0	 0.0	 0.0	 0.0	 1	    1.00000	    0.00000	 13.8	 1	    1.10000	    0.90000;
	73	 2	 0.0	 0.0	 0.0	 0.0	 1	    1.00000	    0.00000	 13.8	 1	    1.10000	    0.90000;
	74	 1	 0.0	 0.0	 0.0	 0.0	 1	    1.00000	    0.00000	 138.0	 2	    1.10000	    0.90000;
	75	 1	 6.72	 1.41	 0.0	 0.0	 1	    1.00000	    0.00000	 138.0	 2	    1.10000	    0.90000;
	76	 1	 0.0	 0.0	 0.0	 0.0	 1	    1.00000	    0.00000	 138.0	 1	    1.10000	    0.90000;
	77	 1	 8.81	 1.85	 0.0	 0.0	 1	    1.00000	    0.00000	 138.0	 1	    1.10000	    0.90000;
	78	 1	 0.0	 0.0	 0.0	 0.0	 1	    1.00000	    0.00000	 138.0	 1	    1.10000	    0.90000;
	79	 1	 0.48	 0.10	 0.0	 0.0	 1	    1.00000	    0.00000	 138.0	 1	    1.10000	    0.90000;
	80	 1	 0.0	 0.0	 0.0	 0.0	 1	    1.00000	    0.00000	 345.0	 2	    1.10000	    0.90000;
	81	 1	 0.0	 0.0	 0.0	 0.0	 1	    1.00000	    0.00000	 138.0	 2	    1.10000	    0.90000;
	82	 2	 0.0	 0.0	 0.0	 0.0	 1	    1.00000	    0.00000	 13.8	 2	    1.10000	    0.90000;
	83	 1	 0.0	 0.0	 0.0	 0.0	 1	    1.00000	    0.00000	 138.0	 2	    1.10000	    0.90000;
	84	 1	 77.87	 16.38	 0.0	 0.0	 1	    1.00000	    0.00000	 138.0	 2	    1.10000	    0.90000;
	85	 1	 0.0	 0.0	 0.0	 0.0	 1	    1.00000	    0.00000	 138.0	 2	    1.10000	    0.90000;
	86	 1	 22.30	 4.69	 0.0	 0.0	 1	    1.00000	    0.00000	 138.0	 2	    1.10000	    0.90000;
	87	 1	 0.0	 0.0	 0.0	 0.0	 1	    1.00000	    0.00000	 138.0	 1	    1.10000	    0.90000;
	88	 1	 6.66	 1.40	 0.0	 0.0	 1	    1.00000	    0.00000	 138.0	 1	    1.10000	    0.90000;
	89	 1	 0.0	 0.0	 0.0	 0.0	 1	    1.00000	    0.00000	 138.0	 2	    1.10000	    0.90000;
	90	 1	 7.48	 1.57	 0.0	 0.0	 1	    1.00000	    0.00000	 138.0	 2	    1.10000	    0.90000;
	91	 1	 0.0	 0.0	 0.0	 0.0	 1	    1.00000	    0.00000	 138.0	 1	    1.10000	    0.90000;
	92	 1	 82.46	 17.34	 0.0	 0.0	 1	    1.00000	    0.00000	 138.0	 1	    1.10000	    0.90000;
	93	 1	 0.0	 0.0	 0.0	 0.0	 1	    1.00000	    0.00000	 138.0	 2	    1.10000	    0.90000;
	94	 1	 6.61	 1.39	 0.0	 0.0	 1	    1.00000	    0.00000	 138.0	 2	    1.10000	    0.90000;
	95	 1	 0.0	 0.0	 0.0	 0.0	 1	    1.00000	    0.00000	 138.0	 1	    1.10000	    0.90000;
	96	 1	 43.11	 9.07	 0.0	 0.0	 1	    1.00000	    0.00000	 138.0	 1	    1.10000	    0.90000;
	97	 1	 0.0	 0.0	 0.0	 0.0	 1	    1.00000	    0.00000	 138.0	 1	    1.10000	    0.90000;
	98	 1	 47.03	 9.89	 0.0	 0.0	 1	    1.00000	    0.00000	 138.0	 1	    1.10000	    0.90000;
	99	 1	 0.0	 0.0	 0.0	 0.0	 1	    1.00000	    0.00000	 138.0	 1	    1.10000	    0.90000;
	100	 1	 17.14	 3.61	 0.0	 0.0	 1	    1.00000	    0.00000	 138.0	 1	    1.10000	    0.90000;
	101	 1	 1.13	 0.24	 0.0	 0.0	 1	    1.00000	    0.00000	 138.0	 1	    1.10000	    0.90000;
	102	 1	 0.0	 0.0	 0.0	 0.0	 1	    1.00000	    0.00000	 138.0	 1	    1.10000	    0.90000;
	103	 1	 49.20	 10.35	 0.0	 0.0	 1	    1.00000	    0.00000	 138.0	 1	    1.10000	    0.90000;
	104	 1	 0.0	 0.0	 0.0	 0.0	 1	    1.00000	    0.00000	 138.0	 2	    1.10000	    0.90000;
	105	 1	 101.86	 21.42	 0.0	 0.0	 1	    1.00000	    0.00000	 138.0	 2	    1.10000	    0.90000;
	106	 1	 0.0	 0.0	 0.0	 0.0	 1	    1.00000	    0.00000	 138.0	 2	    1.10000	    0.90000;
	107	 1	 20.30	 4.27	 0.0	 0.0	 1	    1.00000	    0.00000	 138.0	 2	    1.10000	    0.90000;
	108	 1	 0.0	 0.0	 0.0	 0.0	 1	    1.00000	    0.00000	 138.0	 1	    1.10000	    0.90000;
	109	 1	 60.33	 12.69	 0.0	 0.0	 1	    1.00000	    0.00000	 138.0	 1	    1.10000	    0.90000;
	110	 1	 0.0	 0.0	 0.0	 50.0	 1	    1.00000	    0.00000	 138.0	 1	    1.10000	    0.90000;
	111	 1	 78.98	 16.61	 0.0	 0.0	 1	    1.00000	    0.00000	 138.0	 1	    1.10000	    0.90000;
	112	 1	 0.0	 0.0	 0.0	 0.0	 1	    1.00000	    0.00000	 138.0	 2	    1.10000	    0.90000;
	113	 1	 58.31	 12.26	 0.0	 0.0	 1	    1.00000	    0.00000	 138.0	 2	    1.10000	    0.90000;
	114	 1	 0.0	 0.0	 0.0	 0.0	 1	    1.00000	    0.00000	 138.0	 2	    1.10000	    0.90000;
	115	 1	 6.42	 1.35	 0.0	 0.0	 1	    1.00000	    0.00000	 138.0	 2	    1.10000	    0.90000;
	116	 1	 3.93	 0.83	 0.0	 0.0	 1	    1.00000	    0.00000	 138.0	 2	    1.10000	    0.90000;
	117	 1	 0.0	 0.0	 0.0	 0.0	 1	    1.00000	    0.00000	 138.0	 1	    1.10000	    0.90000;
	118	 1	 11.20	 2.36	 0.0	 0.0	 1	    1.00000	    0.00000	 138.0	 1	    1.10000	    0.90000;
	119	 1	 0.0	 0.0	 0.0	 0.0	 1	    1.00000	    0.00000	 138.0	 1	    1.10000	    0.90000;
	120	 1	 40.13	 8.44	 0.0	 0.0	 1	    1.00000	    0.00000	 138.0	 1	    1.10000	    0.90000;
	121	 1	 0.0	 0.0	 0.0	 0.0	 1	    1.00000	    0.00000	 138.0	 2	    1.10000	    0.90000;
	122	 1	 67.66	 14.23	 0.0	 0.0	 1	    1.00000	    0.00000	 138.0	 2	    1.10000	    0.90000;
	123	 1	 0.0	 0.0	 0.0	 0.0	 1	    1.00000	    0.00000	 345.0	 1	    1.10000	    0.90000;
	124	 1	 0.0	 0.0	 0.0	 0.0	 1	    1.00000	    0.00000	 138.0	 1	    1.10000	    0.90000;
	125	 2	 0.0	 0.0	 0.0	 0.0	 1	    1.00000	    0.00000	 13.8	 1	    1.10000	    0.90000;
	126	 2	 0.0	 0.0	 0.0	 0.0	 1	    1.00000	    0.00000	 13.8	 1	    1.10000	    0.90000;
	127	 2	 0.0	 0.0	 0.0	 0.0	 1	    1.00000	    0.00000	 13.8	 1	    1.10000	    0.90000;
	128	 2	 0.0	 0.0	 0.0	 0.0	 1	    1.00000	    0.00000	 13.8	 1	    1.10000	    0.90000;
	129	 1	 0.0	 0.0	 0.0	 0.0	 1	    1.00000	    0.00000	 138.0	 1	    1.10000	    0.90000;
	130	 1	 130.91	 27.53	 0.0	 0.0	 1	    1.00000	    0.00000	 138.0	 1	    1.10000	    0.90000;
	131	 1	 0.0	 0.0	 0.0	 0.0	 1	    1.00000	    0.00000	 138.0	 1	    1.10000	    0.90000;
	132	 1	 31.95	 6.72	 0.0	 0.0	 1	    1.00000	    0.00000	 138.0	 1	    1.10000	    0.90000;
	133	 1	 0.0	 0.0	 0.0	 0.0	 1	    1.00000	    0.00000	 138.0	 1	    1.10000	    0.90000;
	134	 1	 54.08	 11.37	 0.0	 0.0	 1	    1.00000	    0.00000	 138.0	 1	    1.10000	    0.90000;
	135	 1	 0.0	 0.0	 0.0	 0.0	 1	    1.00000	    0.00000	 138.0	 2	    1.10000	    0.90000;
	136	 1	 33.93	 7.14	 0.0	 0.0	 1	    1.00000	    0.00000	 138.0	 2	    1.10000	    0.90000;
	137	 1	 0.0	 0.0	 0.0	 0.0	 1	    1.00000	    0.00000	 138.0	 1	    1.10000	    0.90000;
	138	 1	 99.80	 20.99	 0.0	 0.0	 1	    1.00000	    0.00000	 138.0	 1	    1.10000	    0.90000;
	139	 1	 0.0	 0.0	 0.0	 0.0	 1	    1.00000	    0.00000	 138.0	 1	    1.10000	    0.90000;
	140	 1	 0.33	 0.07	 0.0	 0.0	 1	    1.00000	    0.00000	 138.0	 1	    1.10000	    0.90000;
	141	 1	 0.0	 0.0	 0.0	 50.0	 1	    1.00000	    0.00000	 138.0	 1	    1.10000	    0.90000;
	142	 1	 204.58	 43.02	 0.0	 0.0	 1	    1.00000	    0.00000	 138.0	 1	    1.10000	    0.90000;
	143	 1	 0.0	 0.0	 0.0	 0.0	 1	    1.00000	    0.00000	 138.0	 1	    1.10000	    0.90000;
	144	 2	 0.0	 0.0	 0.0	 0.0	 1	    1.00000	    0.00000	 13.8	 1	    1.10000	    0.90000;
	145	 2	 0.0	 0.0	 0.0	 0.0	 1	    1.00000	    0.00000	 13.8	 1	    1.10000	    0.90000;
	146	 1	 0.0	 0.0	 0.0	 0.0	 1	    1.00000	    0.00000	 345.0	 2	    1.10000	    0.90000;
	147	 1	 0.0	 0.0	 0.0	 0.0	 1	    1.00000	    0.00000	 138.0	 2	    1.10000	    0.90000;
	148	 1	 72.81	 15.31	 0.0	 0.0	 1	    1.00000	    0.00000	 138.0	 2	    1.10000	    0.90000;
	149	 1	 0.0	 0.0	 0.0	 0.0	 1	    1.00000	    0.00000	 138.0	 2	    1.10000	    0.90000;
	150	 1	 1.90	 0.40	 0.0	 0.0	 1	    1.00000	    0.00000	 138.0	 2	    1.10000	    0.90000;
	151	 1	 0.0	 0.0	 0.0	 0.0	 1	    1.00000	    0.00000	 345.0	 1	    1.10000	    0.90000;
	152	 1	 0.0	 0.0	 0.0	 70.0	 1	    1.00000	    0.00000	 138.0	 1	    1.10000	    0.90000;
	153	 1	 118.11	 24.84	 0.0	 0.0	 1	    1.00000	    0.00000	 138.0	 1	    1.10000	    0.90000;
	154	 1	 0.0	 0.0	 0.0	 0.0	 1	    1.00000	    0.00000	 138.0	 1	    1.10000	    0.90000;
	155	 1	 84.75	 17.82	 0.0	 0.0	 1	    1.00000	    0.00000	 138.0	 1	    1.10000	    0.90000;
	156	 1	 0.0	 0.0	 0.0	 0.0	 1	    1.00000	    0.00000	 138.0	 1	    1.10000	    0.90000;
	157	 1	 133.71	 28.12	 0.0	 0.0	 1	    1.00000	    0.00000	 138.0	 1	    1.10000	    0.90000;
	158	 1	 0.0	 0.0	 0.0	 0.0	 1	    1.00000	    0.00000	 138.0	 2	    1.10000	    0.90000;
	159	 1	 28.97	 6.09	 0.0	 0.0	 1	    1.00000	    0.00000	 138.0	 2	    1.10000	    0.90000;
	160	 1	 0.0	 0.0	 0.0	 0.0	 1	    1.00000	    0.00000	 138.0	 2	    1.10000	    0.90000;
	161	 1	 32.90	 6.92	 0.0	 0.0	 1	    1.00000	    0.00000	 138.0	 2	    1.10000	    0.90000;
	162	 1	 0.0	 0.0	 0.0	 0.0	 1	    1.00000	    0.00000	 345.0	 2	    1.10000	    0.90000;
	163	 1	 0.0	 0.0	 0.0	 0.0	 1	    1.00000	    0.00000	 138.0	 2	    1.10000	    0.90000;
	164	 1	 124.45	 26.17	 0.0	 0.0	 1	    1.00000	    0.00000	 138.0	 2	    1.10000	    0.90000;
	165	 1	 0.0	 0.0	 0.0	 0.0	 1	    1.00000	    0.00000	 345.0	 1	    1.10000	    0.90000;
	166	 1	 0.0	 0.0	 0.0	 0.0	 1	    1.00000	    0.00000	 138.0	 1	    1.10000	    0.90000;
	167	 2	 0.0	 0.0	 0.0	 0.0	 1	    1.00000	    0.00000	 13.8	 1	    1.10000	    0.90000;
	168	 2	 0.0	 0.0	 0.0	 0.0	 1	    1.00000	    0.00000	 13.8	 1	    1.10000	    0.90000;
	169	 2	 0.0	 0.0	 0.0	 0.0	 1	    1.00000	    0.00000	 13.8	 1	    1.10000	    0.90000;
	170	 1	 0.0	 0.0	 0.0	 0.0	 1	    1.00000	    0.00000	 138.0	 1	    1.10000	    0.90000;
	171	 1	 15.70	 3.30	 0.0	 0.0	 1	    1.00000	    0.00000	 138.0	 1	    1.10000	    0.90000;
	172	 1	 0.0	 0.0	 0.0	 0.0	 1	    1.00000	    0.00000	 138.0	 1	    1.10000	    0.90000;
	173	 1	 3.98	 0.84	 0.0	 0.0	 1	    1.00000	    0.00000	 138.0	 1	    1.10000	    0.90000;
	174	 1	 9.26	 1.95	 0.0	 0.0	 1	    1.00000	    0.00000	 138.0	 1	    1.10000	    0.90000;
	175	 1	 0.0	 0.0	 0.0	 0.0	 1	    1.00000	    0.00000	 345.0	 1	    1.10000	    0.90000;
	176	 1	 0.0	 0.0	 0.0	 0.0	 1	    1.00000	    0.00000	 138.0	 1	    1.10000	    0.90000;
	177	 1	 11.13	 2.34	 0.0	 0.0	 1	    1.00000	    0.00000	 138.0	 1	    1.10000	    0.90000;
	178	 1	 8.63	 1.82	 0.0	 0.0	 1	    1.00000	    0.00000	 138.0	 1	    1.10000	    0.90000;
	179	 1	 0.0	 0.0	 0.0	 0.0	 1	    1.00000	    0.00000	 138.0	 2	    1.10000	    0.90000;
	180	 1	 17.93	 3.77	 0.0	 0.0	 1	    1.00000	    0.00000	 138.0	 2	    1.10000	    0.90000;
	181	 1	 0.0	 0.0	 0.0	 60.0	 1	    1.00000	    0.00000	 138.0	 1	    1.10000	    0.90000;
	182	 1	 104.75	 22.03	 0.0	 0.0	 1	    1.00000	    0.00000	 138.0	 1	    1.10000	    0.90000;
	183	 1	 0.0	 0.0	 0.0	 0.0	 1	    1.00000	    0.00000	 138.0	 1	    1.10000	    0.90000;
	184	 1	 38.27	 8.05	 0.0	 0.0	 1	    1.00000	    0.00000	 138.0	 1	    1.10000	    0.90000;
	185	 1	 0.0	 0.0	 0.0	 0.0	 1	    1.00000	    0.00000	 138.0	 1	    1.10000	    0.90000;
	186	 1	 57.50	 12.09	 0.0	 0.0	 1	    1.00000	    0.00000	 138.0	 1	    1.10000	    0.90000;
	187	 1	 0.0	 0.0	 0.0	 0.0	 1	    1.00000	    0.00000	 138.0	 2	    1.10000	    0.90000;
	188	 1	 14.01	 2.95	 0.0	 0.0	 1	    1.00000	    0.00000	 138.0	 2	    1.10000	    0.90000;
	189	 1	 0.0	 0.0	 0.0	 0.0	 1	    1.00000	    0.00000	 138.0	 2	    1.10000	    0.90000;
	190	 1	 17.84	 3.75	 0.0	 0.0	 1	    1.00000	    0.00000	 138.0	 2	    1.10000	    0.90000;
	191	 1	 0.0	 0.0	 0.0	 0.0	 1	    1.00000	    0.00000	 138.0	 2	    1.10000	    0.90000;
	192	 1	 20.85	 4.38	 0.0	 0.0	 1	    1.00000	    0.00000	 138.0	 2	    1.10000	    0.90000;
	193	 1	 0.0	 0.0	 0.0	 0.0	 1	    1.00000	    0.00000	 138.0	 2	    1.10000	    0.90000;
	194	 1	 36.38	 7.65	 0.0	 0.0	 1	    1.00000	    0.00000	 138.0	 2	    1.10000	    0.90000;
	195	 1	 0.0	 0.0	 0.0	 0.0	 1	    1.00000	    0.00000	 345.0	 2	    1.10000	    0.90000;
	196	 1	 0.0	 0.0	 0.0	 0.0	 1	    1.00000	    0.00000	 138.0	 2	    1.10000	    0.90000;
	197	 2	 0.0	 0.0	 0.0	 0.0	 1	    1.00000	    0.00000	 13.8	 2	    1.10000	    0.90000;
	198	 2	 0.0	 0.0	 0.0	 0.0	 1	    1.00000	    0.00000	 13.8	 2	    1.10000	    0.90000;
	199	 1	 109.54	 23.04	 0.0	 0.0	 1	    1.00000	    0.00000	 138.0	 2	    1.10000	    0.90000;
	200	 1	 0.0	 0.0	 0.0	 0.0	 1	    1.00000	    0.00000	 138.0	 2	    1.10000	    0.90000;
...
];

%% generator data
%	bus	Pg	Qg	Qmax	Qmin	Vg	mBase	status	Pmax	Pmin	Pc1	Pc2	Qc1min	Qc1max	Qc2min	Qc2max	ramp_agc	ramp_10	ramp_30	ramp_q	apf
mpc.gen = [
	9	 422.885	 0.0	 365.0	 -365.0	 1.04	 926.16	 1	 730	 115.77	 0.0	 0.0	 0.0	 0.0	 0.0	 0.0	 0.0	 0.0	 0.0	 0.0	 0.0; % COW
	16	 252.8325	 0.0	 220.0	 -220.0	 1.04	 533.34	 1	 439	 66.665	 0.0	 0.0	 0.0	 0.0	 0.0	 0.0	 0.0	 0.0	 0.0	 0.0	 0.0; % NG
	17	 503.6675	 0.0	 437.0	 -437.0	 1.04	 1066.68	 1	 874	 133.335	 0.0	 0.0	 0.0	 0.0	 0.0	 0.0	 0.0	 0.0	 0.0	 0.0	 0.0; % COW
	18	 355.82	 0.0	 344.0	 -344.0	 1.04	 189.12	 1	 688	 23.64	 0.0	 0.0	 0.0	 0.0	 0.0	 0.0	 0.0	 0.0	 0.0	 0.0	 0.0; % COW
	49	 20.5975	 0.0	 21.0	 -21.0	 1.04	 1.56	 1	 41	 0.195	 0.0	 0.0	 0.0	 0.0	 0.0	 0.0	 0.0	 0.0	 0.0	 0.0	 0.0; % PEL
	50	 29.695	 0.0	 30.0	 -30.0	 1.04	 3.12	 1	 59	 0.39	 0.0	 0.0	 0.0	 0.0	 0.0	 0.0	 0.0	 0.0	 0.0	 0.0	 0.0; % PEL
	63	 4.74	 0.0	 5.0	 -5.0	 1.04	 3.84	 0	 9	 0.48	 0.0	 0.0	 0.0	 0.0	 0.0	 0.0	 0.0	 0.0	 0.0	 0.0	 0.0; % PEL
	71	 45.3	 0.0	 64.8	 -64.8	 1.04	 4.8	 1	 90	 0.6	 0.0	 0.0	 0.0	 0.0	 0.0	 0.0	 0.0	 0.0	 0.0	 0.0	 0.0; % NG
	72	 16.65	 0.0	 17.0	 -17.0	 1.04	 2.4	 1	 33	 0.3	 0.0	 0.0	 0.0	 0.0	 0.0	 0.0	 0.0	 0.0	 0.0	 0.0	 0.0; % PEL
	73	 16.105	 0.0	 16.0	 -16.0	 1.04	 1.68	 1	 32	 0.21	 0.0	 0.0	 0.0	 0.0	 0.0	 0.0	 0.0	 0.0	 0.0	 0.0	 0.0; % NG
	82	 276.6425	 0.0	 250.0	 -250.0	 1.04	 434.28	 1	 499	 54.285	 0.0	 0.0	 0.0	 0.0	 0.0	 0.0	 0.0	 0.0	 0.0	 0.0	 0.0; % NG
	125	 89.65	 0.0	 78.0	 -78.0	 1.04	 194.4	 0	 155	 24.3	 0.0	 0.0	 0.0	 0.0	 0.0	 0.0	 0.0	 0.0	 0.0	 0.0	 0.0; % NG
	126	 85.65	 0.0	 74.0	 -74.0	 1.04	 194.4	 0	 147	 24.3	 0.0	 0.0	 0.0	 0.0	 0.0	 0.0	 0.0	 0.0	 0.0	 0.0	 0.0; % NG
	127	 151.65	 0.0	 140.0	 -140.0	 1.04	 194.4	 1	 279	 24.3	 0.0	 0.0	 0.0	 0.0	 0.0	 0.0	 0.0	 0.0	 0.0	 0.0	 0.0; % NG
	128	 186.15	 0.0	 174.0	 -174.0	 1.04	 194.4	 1	 348	 24.3	 0.0	 0.0	 0.0	 0.0	 0.0	 0.0	 0.0	 0.0	 0.0	 0.0	 0.0; % NG
	144	 238.69	 13.87	 221.74	 -194.0	 1.04	 723.06	 1	 387	 90.38	 0.0	 0.0	 0.0	 0.0	 0.0	 0.0	 0.0	 0.0	 0.0	 0.0	 0.0; % COW
	145	 193.19	 36.87	 221.74	 -148.0	 1.04	 723.06	 1	 296	 90.38	 0.0	 0.0	 0.0	 0.0	 0.0	 0.0	 0.0	 0.0	 0.0	 0.0	 0.0; % COW
	167	 181.5125	 0.0	 167.0	 -167.0	 1.04	 232.2	 1	 334	 29.025	 0.0	 0.0	 0.0	 0.0	 0.0	 0.0	 0.0	 0.0	 0.0	 0.0	 0.0; % NG
	168	 214.0125	 0.0	 200.0	 -200.0	 1.04	 232.2	 1	 399	 29.025	 0.0	 0.0	 0.0	 0.0	 0.0	 0.0	 0.0	 0.0	 0.0	 0.0	 0.0; % NG
	169	 339.525	 0.0	 311.0	 -311.0	 1.04	 464.4	 1	 621	 58.05	 0.0	 0.0	 0.0	 0.0	 0.0	 0.0	 0.0	 0.0	 0.0	 0.0	 0.0; % NG
	197	 323.52	 0.0	 302.0	 -302.0	 1.04	 352.32	 1	 603	 44.04	 0.0	 0.0	 0.0	 0.0	 0.0	 0.0	 0.0	 0.0	 0.0	 0.0	 0.0; % COW
	198	 262.5475	 0.0	 247.0	 -247.0	 1.04	 248.76	 1	 494	 31.095	 0.0	 0.0	 0.0	 0.0	 0.0	 0.0	 0.0	 0.0	 0.0	 0.0	 0.0; % NG
	222	 103.39	 0.0	 103.0	 -103.0	 1.04	 6.24	 1	 206	 0.78	 0.0	 0.0	 0.0	 0.0	 0.0	 0.0	 0.0	 0.0	 0.0	 0.0	 0.0; % NG
	223	 40.85	 0.0	 40.0	 -40.0	 1.04	 21.6	 1	 79	 2.7	 0.0	 0.0	 0.0	 0.0	 0.0	 0.0	 0.0	 0.0	 0.0	 0.0	 0.0; % PEL
	224	 219.84	 7.15	 196.3	 -182.0	 1.04	 613.44	 1	 363	 76.68	 0.0	 0.0	 0.0	 0.0	 0.0	 0.0	 0.0	 0.0	 0.0	 0.0	 0.0; % COW
	225	 396.11	 0.0	 358.0	 -358.0	 1.04	 617.76	 1	 715	 77.22	 0.0	 0.0	 0.0	 0.0	 0.0	 0.0	 0.0	 0.0	 0.0	 0.0	 0.0; % COW
	231	 51.7175	 0.0	 52.0	 -52.0	 1.04	 3.48	 1	 103	 0.435	 0.0	 0.0	 0.0	 0.0	 0.0	 0.0	 0.0	 0.0	 0.0	 0.0	 0.0; % PEL
	248	 57.99	 9.9	 67.8	 -48.0	 1.04	 159.84	 0	 96	 19.98	 0.0	 0.0	 0.0	 0.0	 0.0	 0.0	 0.0	 0.0	 0.0	 0.0	 0.0; % NG
	249	 90.99	 0.0	 81.0	 -81.0	 1.04	 159.84	 0	 162	 19.98	 0.0	 0.0	 0.0	 0.0	 0.0	 0.0	 0.0	 0.0	 0.0	 0.0	 0.0; % COW
	250	 218.96	 46.1	 271.2	 -179.0	 1.04	 639.36	 0	 358	 79.92	 0.0	 0.0	 0.0	 0.0	 0.0	 0.0	 0.0	 0.0	 0.0	 0.0	 0.0; % NG
	254	 1.8075	 0.0	 2.0	 -2.0	 1.04	 4.92	 0	 3	 0.615	 0.0	 0.0	 0.0	 0.0	 0.0	 0.0	 0.0	 0.0	 0.0	 0.0	 0.0; % NG
	255	 4.2475	 0.0	 4.0	 -4.0	 1.04	 3.96	 0	 8	 0.495	 0.0	 0.0	 0.0	 0.0	 0.0	 0.0	 0.0	 0.0	 0.0	 0.0	 0.0; % NG
	256	 3.2175	 0.0	 3.0	 -3.0	 1.04	 3.48	 0	 6	 0.435	 0.0	 0.0	 0.0	 0.0	 0.0	 0.0	 0.0	 0.0	 0.0	 0.0	 0.0; % PEL
	257	 2.405	 0.26	 2.52	 -2.0	 1.04	 6.48	 0	 4	 0.81	 0.0	 0.0	 0.0	 0.0	 0.0	 0.0	 0.0	 0.0	 0.0	 0.0	 0.0; % NG
	258	 29.0825	 0.0	 29.0	 -29.0	 1.04	 1.32	 1	 58	 0.165	 0.0	 0.0	 0.0	 0.0	 0.0	 0.0	 0.0	 0.0	 0.0	 0.0	 0.0; % PEL
	264	 37.44	 0.0	 35.0	 -35.0	 1.04	 47.04	 0	 69	 5.88	 0.0	 0.0	 0.0	 0.0	 0.0	 0.0	 0.0	 0.0	 0.0	 0.0	 0.0; % COW
	265	 4.295	 0.7	 5.4	 -4.0	 1.04	 12.72	 0	 7	 1.59	 0.0	 0.0	 0.0	 0.0	 0.0	 0.0	 0.0	 0.0	 0.0	 0.0	 0.0; % NG
	275	 140.59	 0.0	 133.0	 -133.0	 1.04	 121.44	 0	 266	 15.18	 0.0	 0.0	 0.0	 0.0	 0.0	 0.0	 0.0	 0.0	 0.0	 0.0	 0.0; % NG
	301	 58.2175	 0.0	 58.0	 -58.0	 1.04	 3.48	 1	 116	 0.435	 0.0	 0.0	 0.0	 0.0	 0.0	 0.0	 0.0	 0.0	 0.0	 0.0	 0.0; % PEL
	302	 36.2175	 0.0	 36.0	 -36.0	 1.04	 3.48	 1	 72	 0.435	 0.0	 0.0	 0.0	 0.0	 0.0	 0.0	 0.0	 0.0	 0.0	 0.0	 0.0; % PEL
	305	 10.075	 0.0	 10.0	 -10.0	 1.04	 1.2	 1	 20	 0.15	 0.0	 0.0	 0.0	 0.0	 0.0	 0.0	 0.0	 0.0	 0.0	 0.0	 0.0; % PEL
	306	 18.68	 0.0	 19.0	 -19.0	 1.04	 2.88	 1	 37	 0.36	 0.0	 0.0	 0.0	 0.0	 0.0	 0.0	 0.0	 0.0	 0.0	 0.0	 0.0; % PEL
	319	 62.1725	 0.0	 59.0	 -59.0	 1.04	 50.76	 1	 118	 6.345	 0.0	 0.0	 0.0	 0.0	 0.0	 0.0	 0.0	 0.0	 0.0	 0.0	 0.0; % NG
	350	 82.125	 0.0	 81.0	 -81.0	 1.04	 18.0	 1	 162	 2.25	 0.0	 0.0	 0.0	 0.0	 0.0	 0.0	 0.0	 0.0	 0.0	 0.0	 0.0; % NG
	351	 97.965	 0.0	 98.0	 -98.0	 1.04	 7.44	 1	 195	 0.93	 0.0	 0.0	 0.0	 0.0	 0.0	 0.0	 0.0	 0.0	 0.0	 0.0	 0.0; % NG
	352	 45.58	 0.0	 45.0	 -45.0	 1.04	 17.28	 1	 89	 2.16	 0.0	 0.0	 0.0	 0.0	 0.0	 0.0	 0.0	 0.0	 0.0	 0.0	 0.0; % NG
	353	 56.05	 0.0	 51.0	 -51.0	 1.04	 88.8	 1	 101	 11.1	 0.0	 0.0	 0.0	 0.0	 0.0	 0.0	 0.0	 0.0	 0.0	 0.0	 0.0; % NG
	361	 1.62	 0.0	 2.0	 -2.0	 1.04	 1.92	 0	 3	 0.24	 0.0	 0.0	 0.0	 0.0	 0.0	 0.0	 0.0	 0.0	 0.0	 0.0	 0.0; % PEL
	362	 14.825	 0.0	 14.0	 -14.0	 1.04	 13.2	 0	 28	 1.65	 0.0	 0.0	 0.0	 0.0	 0.0	 0.0	 0.0	 0.0	 0.0	 0.0	 0.0; % NG
	363	 4.24	 0.0	 4.0	 -4.0	 1.04	 3.84	 0	 8	 0.48	 0.0	 0.0	 0.0	 0.0	 0.0	 0.0	 0.0	 0.0	 0.0	 0.0	 0.0; % PEL
	388	 8.25	 0.0	 8.0	 -8.0	 1.04	 12.0	 0	 15	 1.5	 0.0	 0.0	 0.0	 0.0	 0.0	 0.0	 0.0	 0.0	 0.0	 0.0	 0.0; % NG
	389	 85.5	 7.615	 88.23	 -73.0	 1.04	 208.0	 0	 145	 26.0	 0.0	 0.0	 0.0	 0.0	 0.0	 0.0	 0.0	 0.0	 0.0	 0.0	 0.0; % NG
	390	 105.0	 0.0	 92.0	 -92.0	 1.04	 208.0	 0	 184	 26.0	 0.0	 0.0	 0.0	 0.0	 0.0	 0.0	 0.0	 0.0	 0.0	 0.0	 0.0; % NG
	391	 81.0	 10.115	 88.23	 -68.0	 1.04	 208.0	 0	 136	 26.0	 0.0	 0.0	 0.0	 0.0	 0.0	 0.0	 0.0	 0.0	 0.0	 0.0	 0.0; % NG
	392	 183.73	 0.0	 175.0	 -175.0	 1.04	 139.68	 0	 350	 17.46	 0.0	 0.0	 0.0	 0.0	 0.0	 0.0	 0.0	 0.0	 0.0	 0.0	 0.0; % COW
	393	 65.73	 1.125	 59.25	 -57.0	 1.04	 139.68	 0	 114	 17.46	 0.0	 0.0	 0.0	 0.0	 0.0	 0.0	 0.0	 0.0	 0.0	 0.0	 0.0; % NG
	394	 138.73	 0.0	 130.0	 -130.0	 1.04	 139.68	 0	 260	 17.46	 0.0	 0.0	 0.0	 0.0	 0.0	 0.0	 0.0	 0.0	 0.0	 0.0	 0.0; % COW
	395	 58.73	 4.625	 59.25	 -50.0	 1.04	 139.68	 0	 100	 17.46	 0.0	 0.0	 0.0	 0.0	 0.0	 0.0	 0.0	 0.0	 0.0	 0.0	 0.0; % NG
	396	 115.23	 0.0	 107.0	 -107.0	 1.04	 139.68	 0	 213	 17.46	 0.0	 0.0	 0.0	 0.0	 0.0	 0.0	 0.0	 0.0	 0.0	 0.0	 0.0; % NG
	409	 113.0	 0.0	 106.0	 -106.0	 1.04	 120.0	 0	 211	 15.0	 0.0	 0.0	 0.0	 0.0	 0.0	 0.0	 0.0	 0.0	 0.0	 0.0	 0.0; % COW
	410	 236.77	 0.0	 227.0	 -227.0	 1.04	 164.34	 1	 453	 20.54	 0.0	 0.0	 0.0	 0.0	 0.0	 0.0	 0.0	 0.0	 0.0	 0.0	 0.0; % COW
	411	 201.27	 0.0	 191.0	 -191.0	 1.04	 164.34	 1	 382	 20.54	 0.0	 0.0	 0.0	 0.0	 0.0	 0.0	 0.0	 0.0	 0.0	 0.0	 0.0; % NG
	412	 130.27	 0.0	 120.0	 -120.0	 1.04	 164.34	 1	 240	 20.54	 0.0	 0.0	 0.0	 0.0	 0.0	 0.0	 0.0	 0.0	 0.0	 0.0	 0.0; % NG
	413	 174.27	 0.0	 164.0	 -164.0	 1.04	 164.34	 1	 328	 20.54	 0.0	 0.0	 0.0	 0.0	 0.0	 0.0	 0.0	 0.0	 0.0	 0.0	 0.0; % NG
	414	 79.3325	 0.0	 71.0	 -71.0	 1.04	 133.32	 0	 142	 16.665	 0.0	 0.0	 0.0	 0.0	 0.0	 0.0	 0.0	 0.0	 0.0	 0.0	 0.0; % NG
	430	 128.075	 0.0	 128.0	 -128.0	 1.04	 1.2	 1	 256	 0.15	 0.0	 0.0	 0.0	 0.0	 0.0	 0.0	 0.0	 0.0	 0.0	 0.0	 0.0; % NG
	431	 114.2475	 0.0	 114.0	 -114.0	 1.04	 3.96	 1	 228	 0.495	 0.0	 0.0	 0.0	 0.0	 0.0	 0.0	 0.0	 0.0	 0.0	 0.0	 0.0; % NG
	432	 51.59	 0.0	 52.0	 -52.0	 1.04	 1.44	 1	 103	 0.18	 0.0	 0.0	 0.0	 0.0	 0.0	 0.0	 0.0	 0.0	 0.0	 0.0	 0.0; % PEL
	433	 68.0025	 0.0	 68.0	 -68.0	 1.04	 8.04	 1	 135	 1.005	 0.0	 0.0	 0.0	 0.0	 0.0	 0.0	 0.0	 0.0	 0.0	 0.0	 0.0; % PEL
	434	 56.3225	 0.0	 56.0	 -56.0	 1.04	 5.16	 1	 112	 0.645	 0.0	 0.0	 0.0	 0.0	 0.0	 0.0	 0.0	 0.0	 0.0	 0.0	 0.0; % PEL
	435	 148.275	 0.0	 134.0	 -134.0	 1.04	 236.4	 0	 267	 29.55	 0.0	 0.0	 0.0	 0.0	 0.0	 0.0	 0.0	 0.0	 0.0	 0.0	 0.0; % NG
	436	 83.275	 3.325	 75.65	 -69.0	 1.04	 236.4	 0	 137	 29.55	 0.0	 0.0	 0.0	 0.0	 0.0	 0.0	 0.0	 0.0	 0.0	 0.0	 0.0; % NG
	437	 192.275	 0.0	 178.0	 -178.0	 1.04	 236.4	 1	 355	 29.55	 0.0	 0.0	 0.0	 0.0	 0.0	 0.0	 0.0	 0.0	 0.0	 0.0	 0.0; % NG
	438	 273.275	 0.0	 259.0	 -259.0	 1.04	 236.4	 1	 517	 29.55	 0.0	 0.0	 0.0	 0.0	 0.0	 0.0	 0.0	 0.0	 0.0	 0.0	 0.0; % NG
	439	 187.775	 0.0	 173.0	 -173.0	 1.04	 236.4	 1	 346	 29.55	 0.0	 0.0	 0.0	 0.0	 0.0	 0.0	 0.0	 0.0	 0.0	 0.0	 0.0; % NG
	442	 64.6	 0.0	 57.0	 -57.0	 1.04	 129.6	 0	 113	 16.2	 0.0	 0.0	 0.0	 0.0	 0.0	 0.0	 0.0	 0.0	 0.0	 0.0	 0.0; % NG
	443	 260.125	 0.0	 247.0	 -247.0	 1.04	 210.0	 0	 494	 26.25	 0.0	 0.0	 0.0	 0.0	 0.0	 0.0	 0.0	 0.0	 0.0	 0.0	 0.0; % COW
	444	 2.2475	 0.0	 2.0	 -2.0	 1.04	 3.96	 0	 4	 0.495	 0.0	 0.0	 0.0	 0.0	 0.0	 0.0	 0.0	 0.0	 0.0	 0.0	 0.0; % COW
	455	 248.2125	 0.0	 232.0	 -232.0	 1.04	 267.4	 1	 463	 33.425	 0.0	 0.0	 0.0	 0.0	 0.0	 0.0	 0.0	 0.0	 0.0	 0.0	 0.0; % NG
	456	 489.925	 0.0	 457.0	 -457.0	 1.04	 534.8	 1	 913	 66.85	 0.0	 0.0	 0.0	 0.0	 0.0	 0.0	 0.0	 0.0	 0.0	 0.0	 0.0; % COW
	458	 124.22	 0.0	 116.0	 -116.0	 1.04	 131.52	 1	 232	 16.44	 0.0	 0.0	 0.0	 0.0	 0.0	 0.0	 0.0	 0.0	 0.0	 0.0	 0.0; % NG
	463	 6.54	 0.0	 6.0	 -6.0	 1.04	 8.64	 0	 12	 1.08	 0.0	 0.0	 0.0	 0.0	 0.0	 0.0	 0.0	 0.0	 0.0	 0.0	 0.0; % PEL
	480	 45.7	 0.0	 42.0	 -42.0	 1.04	 67.2	 1	 83	 8.4	 0.0	 0.0	 0.0	 0.0	 0.0	 0.0	 0.0	 0.0	 0.0	 0.0	 0.0; % PEL
	481	 58.375	 0.0	 55.0	 -55.0	 1.04	 54.0	 1	 110	 6.75	 0.0	 0.0	 0.0	 0.0	 0.0	 0.0	 0.0	 0.0	 0.0	 0.0	 0.0; % NG
	482	 49.875	 0.0	 47.0	 -47.0	 1.04	 54.0	 1	 93	 6.75	 0.0	 0.0	 0.0	 0.0	 0.0	 0.0	 0.0	 0.0	 0.0	 0.0	 0.0; % NG
	483	 68.8	 0.0	 67.0	 -67.0	 1.04	 28.8	 1	 134	 3.6	 0.0	 0.0	 0.0	 0.0	 0.0	 0.0	 0.0	 0.0	 0.0	 0.0	 0.0; % PEL
	484	 34.6	 0.0	 33.0	 -33.0	 1.04	 33.6	 1	 65	 4.2	 0.0	 0.0	 0.0	 0.0	 0.0	 0.0	 0.0	 0.0	 0.0	 0.0	 0.0; % PEL
	494	 4.935	 0.0	 5.0	 -5.0	 1.04	 6.96	 0	 9	 0.87	 0.0	 0.0	 0.0	 0.0	 0.0	 0.0	 0.0	 0.0	 0.0	 0.0	 0.0; % COW
	497	 250.5	 0.0	 246.0	 -246.0	 1.04	 72.0	 1	 492	 9.0	 0.0	 0.0	 0.0	 0.0	 0.0	 0.0	 0.0	 0.0	 0.0	 0.0	 0.0; % NG
	498	 47.35	 0.0	 46.0	 -46.0	 1.04	 21.6	 1	 92	 2.7	 0.0	 0.0	 0.0	 0.0	 0.0	 0.0	 0.0	 0.0	 0.0	 0.0	 0.0; % PEL
];

%% generator cost data
%	2	startup	shutdown	n	c(n-1)	...	c0
mpc.gencost = [
	2	 0.0	 0.0	 3	   0.002000	  19.000000	 1424.480000; % COW
	2	 0.0	 0.0	 3	   0.000000	   5.867000	 1266.470000; % NG
	2	 0.0	 0.0	 3	   0.000000	   8.412000	 1319.130000; % COW
	2	 0.0	 0.0	 3	   0.000000	   9.275000	 1076.210000; % COW
	2	 0.0	 0.0	 3	   0.002000	  19.000000	 236.030000; % PEL
	2	 0.0	 0.0	 3	   0.002000	  19.000000	 236.070000; % PEL
	2	 0.0	 0.0	 3	   0.002000	  23.152000	 604.800000; % PEL
	2	 0.0	 0.0	 3	   0.000000	   0.000000	   0.000000; % NG
	2	 0.0	 0.0	 3	   0.000000	   0.000000	   0.000000; % PEL
	2	 0.0	 0.0	 3	   0.000000	   0.000000	   0.000000; % NG
	2	 0.0	 0.0	 3	   0.000000	   0.000000	   0.000000; % NG
	2	 0.0	 0.0	 3	   0.000000	   0.000000	   0.000000; % NG
	2	 0.0	 0.0	 3	   0.000000	   0.000000	   0.000000; % NG
	2	 0.0	 0.0	 3	   0.000000	   0.000000	   0.000000; % NG
	2	 0.0	 0.0	 3	   0.000000	   0.000000	   0.000000; % NG
	2	 0.0	 0.0	 3	   0.000000	   6.870000	 1363.880000; % COW
	2	 0.0	 0.0	 3	   0.000000	   8.143000	 1060.190000; % COW
	2	 0.0	 0.0	 3	   0.000000	   0.000000	   0.000000; % NG
	2	 0.0	 0.0	 3	   0.000000	   0.000000	   0.000000; % NG
	2	 0.0	 0.0	 3	   0.000000	   0.000000	   0.000000; % NG
	2	 0.0	 0.0	 3	   0.002000	  19.000000	 1081.020000; % COW
	2	 0.0	 0.0	 3	   0.002000	  19.000000	 879.080000; % NG
	2	 0.0	 0.0	 3	   0.000000	   0.000000	   0.000000; % NG
	2	 0.0	 0.0	 3	   0.000000	   0.000000	   0.000000; % PEL
	2	 0.0	 0.0	 3	   0.000000	   0.000000	   0.000000; % COW
	2	 0.0	 0.0	 3	   0.000000	   0.000000	   0.000000; % COW
	2	 0.0	 0.0	 3	   0.002000	  19.000000	 236.080000; % PEL
	2	 0.0	 0.0	 3	   0.002000	  24.033000	 799.800000; % NG
	2	 0.0	 0.0	 3	   0.002000	  24.033000	 799.800000; % COW
	2	 0.0	 0.0	 3	   0.002000	  26.742000	 2763.980000; % NG
	2	 0.0	 0.0	 3	   0.002000	  19.000000	 236.110000; % NG
	2	 0.0	 0.0	 3	   0.002000	  19.000000	 236.090000; % NG
	2	 0.0	 0.0	 3	   0.002000	  19.000000	 236.080000; % PEL
	2	 0.0	 0.0	 3	   0.002000	  19.000000	 236.140000; % NG
	2	 0.0	 0.0	 3	   0.002000	  19.000000	 236.030000; % PEL
	2	 0.0	 0.0	 3	   0.002000	  23.396000	 658.800000; % COW
	2	 0.0	 0.0	 3	   0.002000	  23.202000	 615.900000; % NG
	2	 0.0	 0.0	 3	   0.002000	  23.816000	 751.800000; % NG
	2	 0.0	 0.0	 3	   0.002000	  19.000000	 236.080000; % PEL
	2	 0.0	 0.0	 3	   0.002000	  19.000000	 236.080000; % PEL
	2	 0.0	 0.0	 3	   0.000000	   0.000000	   0.000000; % PEL
	2	 0.0	 0.0	 3	   0.000000	   0.000000	   0.000000; % PEL
	2	 0.0	 0.0	 3	   0.000000	   0.000000	   0.000000; % NG
	2	 0.0	 0.0	 3	   0.000000	   0.000000	   0.000000; % NG
	2	 0.0	 0.0	 3	   0.000000	   0.000000	   0.000000; % NG
	2	 0.0	 0.0	 3	   0.000000	   0.000000	   0.000000; % NG
	2	 0.0	 0.0	 3	   0.000000	   0.000000	   0.000000; % NG
	2	 0.0	 0.0	 3	   0.002000	  23.141000	 602.400000; % PEL
	2	 0.0	 0.0	 3	   0.002000	  23.205000	 616.500000; % NG
	2	 0.0	 0.0	 3	   0.002000	  23.152000	 604.800000; % PEL
	2	 0.0	 0.0	 3	   0.002000	  23.198000	 615.000000; % NG
	2	 0.0	 0.0	 3	   0.002000	  24.305000	 859.990000; % NG
	2	 0.0	 0.0	 3	   0.002000	  24.305000	 859.990000; % NG
	2	 0.0	 0.0	 3	   0.002000	  24.305000	 859.990000; % NG
	2	 0.0	 0.0	 3	   0.002000	  23.919000	 774.600000; % COW
	2	 0.0	 0.0	 3	   0.002000	  23.919000	 774.600000; % NG
	2	 0.0	 0.0	 3	   0.002000	  23.919000	 774.600000; % COW
	2	 0.0	 0.0	 3	   0.002000	  23.919000	 774.600000; % NG
	2	 0.0	 0.0	 3	   0.002000	  23.919000	 774.600000; % NG
	2	 0.0	 0.0	 3	   0.002000	  23.808000	 750.000000; % COW
	2	 0.0	 0.0	 3	   0.002000	  24.059000	 805.420000; % COW
	2	 0.0	 0.0	 3	   0.002000	  24.059000	 805.420000; % NG
	2	 0.0	 0.0	 3	   0.002000	  24.059000	 805.420000; % NG
	2	 0.0	 0.0	 3	   0.002000	  24.059000	 805.420000; % NG
	2	 0.0	 0.0	 3	   0.002000	  23.883000	 766.650000; % NG
	2	 0.0	 0.0	 3	   0.000000	   0.000000	   0.000000; % NG
	2	 0.0	 0.0	 3	   0.000000	   0.000000	   0.000000; % NG
	2	 0.0	 0.0	 3	   0.000000	   0.000000	   0.000000; % PEL
	2	 0.0	 0.0	 3	   0.000000	   0.000000	   0.000000; % PEL
	2	 0.0	 0.0	 3	   0.000000	   0.000000	   0.000000; % PEL
	2	 0.0	 0.0	 3	   0.000000	   0.000000	   0.000000; % NG
	2	 0.0	 0.0	 3	   0.000000	   0.000000	   0.000000; % NG
	2	 0.0	 0.0	 3	   0.000000	   0.000000	   0.000000; % NG
	2	 0.0	 0.0	 3	   0.000000	   0.000000	   0.000000; % NG
	2	 0.0	 0.0	 3	   0.000000	   0.000000	   0.000000; % NG
	2	 0.0	 0.0	 3	   0.002000	  23.862000	 762.000000; % NG
	2	 0.0	 0.0	 3	   0.002000	  24.316000	 862.500000; % COW
	2	 0.0	 0.0	 3	   0.002000	  23.152000	 604.950000; % COW
	2	 0.0	 0.0	 3	   0.002000	  24.641000	 934.240000; % NG
	2	 0.0	 0.0	 3	   0.002000	  26.152000	 1344.190000; % COW
	2	 0.0	 0.0	 3	   0.000000	   0.000000	   0.000000; % NG
	2	 0.0	 0.0	 3	   0.002000	  19.000000	 236.190000; % PEL
	2	 0.0	 0.0	 3	   0.000000	   0.000000	   0.000000; % PEL
	2	 0.0	 0.0	 3	   0.000000	   0.000000	   0.000000; % NG
	2	 0.0	 0.0	 3	   0.000000	   0.000000	   0.000000; % NG
	2	 0.0	 0.0	 3	   0.000000	   0.000000	   0.000000; % PEL
	2	 0.0	 0.0	 3	   0.000000	   0.000000	   0.000000; % PEL
	2	 0.0	 0.0	 3	   0.002000	  19.000000	 236.150000; % COW
	2	 0.0	 0.0	 3	   0.000000	   0.000000	   0.000000; % NG
	2	 0.0	 0.0	 3	   0.000000	   0.000000	   0.000000; % PEL
];

%% branch data
%	fbus	tbus	r	x	b	rateA	rateB	rateC	ratio	angle	status	angmin	angmax
mpc.branch = [
	2	 1	 0.000531	 0.00314	 0.0	 76.5	 0.0	 0.0	 0.0	 0.0	 1	 -30.0	 30.0;
	44	 1	 0.005479	 0.050257	 0.01781	 320.29	 0.0	 0.0	 0.0	 0.0	 1	 -30.0	 30.0;
	421	 1	 0.005369	 0.051555	 0.01664	 320.29	 0.0	 0.0	 0.0	 0.0	 1	 -30.0	 30.0;
	4	 3	 0.000692	 0.003518	 0.0	 225.06	 0.0	 0.0	 0.0	 0.0	 1	 -30.0	 30.0;
	62	 3	 0.002718	 0.026098	 0.00842	 320.29	 0.0	 0.0	 0.0	 0.0	 1	 -30.0	 30.0;
	3	 479	 0.007258	 0.069699	 0.0225	 320.29	 0.0	 0.0	 0.0	 0.0	 1	 -30.0	 30.0;
	6	 5	 0.000556	 0.003563	 0.0	 4.49	 0.0	 0.0	 0.0	 0.0	 1	 -30.0	 30.0;
	316	 5	 0.002445	 0.02348	 0.00758	 320.29	 0.0	 0.0	 0.0	 0.0	 1	 -30.0	 30.0;
	401	 5	 0.004886	 0.04692	 0.01515	 320.29	 0.0	 0.0	 0.0	 0.0	 1	 -30.0	 30.0;
	8	 7	 0.000355	 0.0129	 0.0	 567.0	 0.0	 0.0	 1.0	 0.0	 1	 -30.0	 30.0;
	9	 7	 0.00012	 0.01362	 0.0	 680.0	 0.0	 0.0	 1.0	 0.0	 1	 -30.0	 30.0;
	9	 7	 0.00012	 0.01362	 0.0	 680.0	 0.0	 0.0	 1.0	 0.0	 1	 -30.0	 30.0;
	7	 232	 0.001119	 0.014808	 0.31205	 1493.89	 0.0	 0.0	 0.0	 0.0	 1	 -30.0	 30.0;
	7	 262	 0.000947	 0.013749	 0.23994	 1493.89	 0.0	 0.0	 0.0	 0.0	 1	 -30.0	 30.0;
	8	 287	 0.003727	 0.035786	 0.01155	 320.29	 0.0	 0.0	 0.0	 0.0	 1	 -30.0	 30.0;
	8	 457	 0.001974	 0.018955	 0.00612	 320.29	 0.0	 0.0	 0.0	 0.0	 1	 -30.0	 30.0;
	11	 10	 0.000655	 0.003201	 0.0	 3.96	 0.0	 0.0	 0.0	 0.0	 1	 -30.0	 30.0;
	342	 10	 0.002825	 0.027123	 0.00876	 320.29	 0.0	 0.0	 0.0	 0.0	 1	 -30.0	 30.0;
	10	 349	 0.001402	 0.01346	 0.00434	 320.29	 0.0	 0.0	 0.0	 0.0	 1	 -30.0	 30.0;
	13	 12	 0.000623	 0.003134	 0.0	 65.5	 0.0	 0.0	 0.0	 0.0	 1	 -30.0	 30.0;
	12	 216	 0.003962	 0.038048	 0.01228	 320.29	 0.0	 0.0	 0.0	 0.0	 1	 -30.0	 30.0;
	12	 304	 0.00231	 0.021191	 0.00751	 320.29	 0.0	 0.0	 0.0	 0.0	 1	 -30.0	 30.0;
	12	 441	 0.001565	 0.015025	 0.00485	 320.29	 0.0	 0.0	 0.0	 0.0	 1	 -30.0	 30.0;
	15	 14	 0.000208	 0.01122	 0.0	 682.0	 0.0	 0.0	 1.0	 0.0	 1	 -30.0	 30.0;
	16	 14	 0.000326	 0.01202	 0.0	 596.0	 0.0	 0.0	 1.0	 0.0	 1	 -30.0	 30.0;
	17	 14	 0.000279	 0.01438	 0.0	 674.0	 0.0	 0.0	 1.0	 0.0	 1	 -30.0	 30.0;
	17	 14	 0.000354	 0.01438	 0.0	 674.0	 0.0	 0.0	 1.0	 0.0	 1	 -30.0	 30.0;
	18	 14	 0.001417	 0.05115	 0.0	 340.0	 0.0	 0.0	 1.0	 0.0	 1	 -30.0	 30.0;
	386	 14	 0.000317	 0.004547	 0.08136	 1493.89	 0.0	 0.0	 0.0	 0.0	 1	 -30.0	 30.0;
	386	 14	 0.00032	 0.00455	 0.08136	 1493.9	 0.0	 0.0	 0.0	 0.0	 1	 -30.0	 30.0;
	15	 91	 0.004799	 0.046085	 0.01488	 320.29	 0.0	 0.0	 0.0	 0.0	 1	 -30.0	 30.0;
	15	 230	 0.010894	 0.104607	 0.03377	 320.29	 0.0	 0.0	 0.0	 0.0	 1	 -30.0	 30.0;
	367	 15	 0.001918	 0.018416	 0.00594	 320.29	 0.0	 0.0	 0.0	 0.0	 1	 -30.0	 30.0;
	15	 369	 0.001854	 0.01701	 0.00603	 320.29	 0.0	 0.0	 0.0	 0.0	 1	 -30.0	 30.0;
	15	 473	 0.009225	 0.084621	 0.02999	 320.29	 0.0	 0.0	 0.0	 0.0	 1	 -30.0	 30.0;
	20	 19	 0.000541	 0.003886	 0.0	 7.53	 0.0	 0.0	 0.0	 0.0	 1	 -30.0	 30.0;
	19	 112	 0.004722	 0.045345	 0.01464	 320.29	 0.0	 0.0	 0.0	 0.0	 1	 -30.0	 30.0;
	193	 19	 0.002221	 0.021323	 0.00688	 320.29	 0.0	 0.0	 0.0	 0.0	 1	 -30.0	 30.0;
	19	 272	 0.002293	 0.02202	 0.00711	 320.29	 0.0	 0.0	 0.0	 0.0	 1	 -30.0	 30.0;
	22	 21	 0.000587	 0.003174	 0.0	 254.15	 0.0	 0.0	 0.0	 0.0	 1	 -30.0	 30.0;
	21	 112	 0.005092	 0.048896	 0.01578	 320.29	 0.0	 0.0	 0.0	 0.0	 1	 -30.0	 30.0;
	21	 196	 0.002207	 0.020247	 0.00718	 320.29	 0.0	 0.0	 0.0	 0.0	 1	 -30.0	 30.0;
	24	 23	 0.00033	 0.01764	 0.0	 626.0	 0.0	 0.0	 1.0	 0.0	 1	 -30.0	 30.0;
	151	 23	 0.000182	 0.002607	 0.04665	 1493.89	 0.0	 0.0	 0.0	 0.0	 1	 -30.0	 30.0;
	23	 386	 0.001642	 0.023851	 0.41623	 1493.89	 0.0	 0.0	 0.0	 0.0	 1	 -30.0	 30.0;
	23	 464	 0.000947	 0.012532	 0.26411	 1493.89	 0.0	 0.0	 0.0	 0.0	 1	 -30.0	 30.0;
	23	 471	 0.000532	 0.007041	 0.14837	 1493.89	 0.0	 0.0	 0.0	 0.0	 1	 -30.0	 30.0;
	25	 24	 0.000613	 0.003629	 0.0	 3.56	 0.0	 0.0	 0.0	 0.0	 1	 -30.0	 30.0;
	26	 24	 0.000563	 0.003729	 0.0	 29.46	 0.0	 0.0	 0.0	 0.0	 1	 -30.0	 30.0;
	210	 24	 0.002218	 0.020344	 0.00721	 320.29	 0.0	 0.0	 0.0	 0.0	 1	 -30.0	 30.0;
	24	 360	 0.002365	 0.022714	 0.00733	 320.29	 0.0	 0.0	 0.0	 0.0	 1	 -30.0	 30.0;
	28	 27	 0.000687	 0.003963	 0.0	 108.61	 0.0	 0.0	 0.0	 0.0	 1	 -30.0	 30.0;
	27	 68	 0.005607	 0.053845	 0.01738	 320.29	 0.0	 0.0	 0.0	 0.0	 1	 -30.0	 30.0;
	27	 382	 0.00337	 0.030912	 0.01095	 320.29	 0.0	 0.0	 0.0	 0.0	 1	 -30.0	 30.0;
	30	 29	 0.000616	 0.003298	 0.0	 156.98	 0.0	 0.0	 0.0	 0.0	 1	 -30.0	 30.0;
	454	 29	 0.00247	 0.022656	 0.00803	 320.29	 0.0	 0.0	 0.0	 0.0	 1	 -30.0	 30.0;
	29	 491	 0.005607	 0.053837	 0.01738	 320.29	 0.0	 0.0	 0.0	 0.0	 1	 -30.0	 30.0;
	32	 31	 0.000625	 0.003429	 0.0	 15.7	 0.0	 0.0	 0.0	 0.0	 1	 -30.0	 30.0;
	31	 85	 0.005303	 0.050926	 0.01644	 320.29	 0.0	 0.0	 0.0	 0.0	 1	 -30.0	 30.0;
	104	 31	 0.005526	 0.053062	 0.01713	 320.29	 0.0	 0.0	 0.0	 0.0	 1	 -30.0	 30.0;
	31	 189	 0.005707	 0.0548	 0.01769	 320.29	 0.0	 0.0	 0.0	 0.0	 1	 -30.0	 30.0;
	31	 205	 0.007797	 0.074869	 0.02417	 320.29	 0.0	 0.0	 0.0	 0.0	 1	 -30.0	 30.0;
	31	 218	 0.008273	 0.079446	 0.02565	 320.29	 0.0	 0.0	 0.0	 0.0	 1	 -30.0	 30.0;
	267	 31	 0.004897	 0.047021	 0.01518	 320.29	 0.0	 0.0	 0.0	 0.0	 1	 -30.0	 30.0;
	34	 33	 0.000624	 0.003284	 0.0	 43.35	 0.0	 0.0	 0.0	 0.0	 1	 -30.0	 30.0;
	83	 33	 0.005287	 0.050764	 0.01639	 320.29	 0.0	 0.0	 0.0	 0.0	 1	 -30.0	 30.0;
	112	 33	 0.007061	 0.067808	 0.02189	 320.29	 0.0	 0.0	 0.0	 0.0	 1	 -30.0	 30.0;
	36	 35	 0.000583	 0.00303	 0.0	 62.87	 0.0	 0.0	 0.0	 0.0	 1	 -30.0	 30.0;
	191	 35	 0.004038	 0.037042	 0.01313	 320.29	 0.0	 0.0	 0.0	 0.0	 1	 -30.0	 30.0;
	35	 399	 0.005636	 0.054123	 0.01747	 320.29	 0.0	 0.0	 0.0	 0.0	 1	 -30.0	 30.0;
	38	 37	 0.000546	 0.003823	 0.0	 0.18	 0.0	 0.0	 0.0	 0.0	 1	 -30.0	 30.0;
	76	 37	 0.001474	 0.014156	 0.00457	 320.29	 0.0	 0.0	 0.0	 0.0	 1	 -30.0	 30.0;
	37	 176	 0.003039	 0.02918	 0.00942	 320.29	 0.0	 0.0	 0.0	 0.0	 1	 -30.0	 30.0;
	40	 39	 0.0007	 0.02531	 0.0	 428.0	 0.0	 0.0	 1.0	 0.0	 1	 -30.0	 30.0;
	39	 332	 0.000403	 0.005786	 0.10355	 1493.89	 0.0	 0.0	 0.0	 0.0	 1	 -30.0	 30.0;
	39	 428	 0.000521	 0.006898	 0.14538	 1493.89	 0.0	 0.0	 0.0	 0.0	 1	 -30.0	 30.0;
	41	 40	 0.000631	 0.003923	 0.0	 97.47	 0.0	 0.0	 0.0	 0.0	 1	 -30.0	 30.0;
	40	 131	 0.002909	 0.026681	 0.00946	 320.29	 0.0	 0.0	 0.0	 0.0	 1	 -30.0	 30.0;
	43	 42	 0.000542	 0.003119	 0.0	 7.7	 0.0	 0.0	 0.0	 0.0	 1	 -30.0	 30.0;
	81	 42	 0.002361	 0.02166	 0.00768	 320.29	 0.0	 0.0	 0.0	 0.0	 1	 -30.0	 30.0;
	42	 191	 0.006368	 0.05842	 0.0207	 320.29	 0.0	 0.0	 0.0	 0.0	 1	 -30.0	 30.0;
	45	 44	 0.000637	 0.003876	 0.0	 2.84	 0.0	 0.0	 0.0	 0.0	 1	 -30.0	 30.0;
	44	 200	 0.002105	 0.019311	 0.00684	 320.29	 0.0	 0.0	 0.0	 0.0	 1	 -30.0	 30.0;
	47	 46	 0.000602	 0.003454	 0.0	 63.0	 0.0	 0.0	 0.0	 0.0	 1	 -30.0	 30.0;
	46	 156	 0.006611	 0.063482	 0.02049	 320.29	 0.0	 0.0	 0.0	 0.0	 1	 -30.0	 30.0;
	238	 46	 0.003134	 0.030093	 0.00971	 320.29	 0.0	 0.0	 0.0	 0.0	 1	 -30.0	 30.0;
	49	 48	 0.01331	 0.27853	 0.0	 57.0	 0.0	 0.0	 1.0	 0.0	 1	 -30.0	 30.0;
	50	 48	 0.00715	 0.16356	 0.0	 70.0	 0.0	 0.0	 1.0	 0.0	 1	 -30.0	 30.0;
	51	 48	 0.000658	 0.003672	 0.0	 0.56	 0.0	 0.0	 0.0	 0.0	 1	 -30.0	 30.0;
	52	 48	 0.00062	 0.003342	 0.0	 37.95	 0.0	 0.0	 0.0	 0.0	 1	 -30.0	 30.0;
	358	 48	 0.0045	 0.041283	 0.01463	 320.29	 0.0	 0.0	 0.0	 0.0	 1	 -30.0	 30.0;
	419	 48	 0.004637	 0.044525	 0.01437	 320.29	 0.0	 0.0	 0.0	 0.0	 1	 -30.0	 30.0;
	54	 53	 0.00068	 0.003061	 0.0	 51.27	 0.0	 0.0	 0.0	 0.0	 1	 -30.0	 30.0;
	233	 53	 0.002362	 0.021667	 0.00768	 320.29	 0.0	 0.0	 0.0	 0.0	 1	 -30.0	 30.0;
	53	 276	 0.001502	 0.014424	 0.00466	 320.29	 0.0	 0.0	 0.0	 0.0	 1	 -30.0	 30.0;
	56	 55	 0.000641	 0.00331	 0.0	 3.15	 0.0	 0.0	 0.0	 0.0	 1	 -30.0	 30.0;
	55	 66	 0.00433	 0.041575	 0.01342	 320.29	 0.0	 0.0	 0.0	 0.0	 1	 -30.0	 30.0;
	55	 500	 0.004481	 0.041102	 0.01457	 320.29	 0.0	 0.0	 0.0	 0.0	 1	 -30.0	 30.0;
	58	 57	 0.00012	 0.01762	 0.0	 675.0	 0.0	 0.0	 1.0	 0.0	 1	 -30.0	 30.0;
	58	 57	 0.00012	 0.01762	 0.0	 675.0	 0.0	 0.0	 1.0	 0.0	 1	 -30.0	 30.0;
	57	 123	 0.001682	 0.024427	 0.42627	 1493.89	 0.0	 0.0	 0.0	 0.0	 1	 -30.0	 30.0;
	440	 57	 0.000601	 0.008726	 0.15227	 1493.89	 0.0	 0.0	 0.0	 0.0	 1	 -30.0	 30.0;
	59	 58	 0.00062	 0.003848	 0.0	 252.93	 0.0	 0.0	 0.0	 0.0	 1	 -30.0	 30.0;
	58	 253	 0.004532	 0.04352	 0.01405	 320.29	 0.0	 0.0	 0.0	 0.0	 1	 -30.0	 30.0;
	322	 58	 0.002019	 0.019385	 0.00626	 320.29	 0.0	 0.0	 0.0	 0.0	 1	 -30.0	 30.0;
	322	 58	 0.00202	 0.01939	 0.00626	 320.3	 0.0	 0.0	 0.0	 0.0	 1	 -30.0	 30.0;
	61	 60	 0.000529	 0.003518	 0.0	 0.32	 0.0	 0.0	 0.0	 0.0	 1	 -30.0	 30.0;
	60	 131	 0.001985	 0.018208	 0.00645	 320.29	 0.0	 0.0	 0.0	 0.0	 1	 -30.0	 30.0;
	466	 60	 0.002011	 0.019314	 0.00623	 320.29	 0.0	 0.0	 0.0	 0.0	 1	 -30.0	 30.0;
	63	 62	 0.0032	 0.16353	 0.0	 70.0	 0.0	 0.0	 1.0	 0.0	 1	 -30.0	 30.0;
	64	 62	 0.000661	 0.003274	 0.0	 45.58	 0.0	 0.0	 0.0	 0.0	 1	 -30.0	 30.0;
	287	 62	 0.005453	 0.052365	 0.0169	 320.29	 0.0	 0.0	 0.0	 0.0	 1	 -30.0	 30.0;
	62	 457	 0.007267	 0.069786	 0.02253	 320.29	 0.0	 0.0	 0.0	 0.0	 1	 -30.0	 30.0;
	66	 65	 0.000808	 0.03088	 0.0	 405.0	 0.0	 0.0	 1.0	 0.0	 1	 -30.0	 30.0;
	80	 65	 0.00096	 0.013773	 0.24648	 1493.89	 0.0	 0.0	 0.0	 0.0	 1	 -30.0	 30.0;
	65	 297	 0.00092	 0.013192	 0.23607	 1493.89	 0.0	 0.0	 0.0	 0.0	 1	 -30.0	 30.0;
	67	 66	 0.000661	 0.003359	 0.0	 6.71	 0.0	 0.0	 0.0	 0.0	 1	 -30.0	 30.0;
	66	 308	 0.00718	 0.06895	 0.02226	 320.29	 0.0	 0.0	 0.0	 0.0	 1	 -30.0	 30.0;
	69	 68	 0.000669	 0.003998	 0.0	 27.64	 0.0	 0.0	 0.0	 0.0	 1	 -30.0	 30.0;
	68	 295	 0.004469	 0.040995	 0.01453	 320.29	 0.0	 0.0	 0.0	 0.0	 1	 -30.0	 30.0;
	68	 314	 0.001805	 0.017334	 0.0056	 320.29	 0.0	 0.0	 0.0	 0.0	 1	 -30.0	 30.0;
	71	 70	 0.00103	 0.04472	 0.0	 133.0	 0.0	 0.0	 1.0	 0.0	 1	 -30.0	 30.0;
	72	 70	 0.00292	 0.14481	 0.0	 60.0	 0.0	 0.0	 1.0	 0.0	 1	 -30.0	 30.0;
	73	 70	 0.012696	 0.27303	 0.0	 49.0	 0.0	 0.0	 1.0	 0.0	 1	 -30.0	 30.0;
	216	 70	 0.002596	 0.02381	 0.00844	 320.29	 0.0	 0.0	 0.0	 0.0	 1	 -30.0	 30.0;
	70	 490	 0.002127	 0.019512	 0.00691	 320.29	 0.0	 0.0	 0.0	 0.0	 1	 -30.0	 30.0;
	75	 74	 0.000584	 0.003339	 0.0	 8.81	 0.0	 0.0	 0.0	 0.0	 1	 -30.0	 30.0;
	74	 189	 0.005632	 0.054084	 0.01746	 320.29	 0.0	 0.0	 0.0	 0.0	 1	 -30.0	 30.0;
	240	 74	 0.004434	 0.04067	 0.01441	 320.29	 0.0	 0.0	 0.0	 0.0	 1	 -30.0	 30.0;
	77	 76	 0.000695	 0.003313	 0.0	 12.16	 0.0	 0.0	 0.0	 0.0	 1	 -30.0	 30.0;
	452	 76	 0.002012	 0.019322	 0.00624	 320.29	 0.0	 0.0	 0.0	 0.0	 1	 -30.0	 30.0;
	79	 78	 0.000622	 0.003279	 0.0	 0.52	 0.0	 0.0	 0.0	 0.0	 1	 -30.0	 30.0;
	78	 328	 0.005432	 0.049829	 0.01766	 320.29	 0.0	 0.0	 0.0	 0.0	 1	 -30.0	 30.0;
	78	 387	 0.002354	 0.022609	 0.0073	 320.29	 0.0	 0.0	 0.0	 0.0	 1	 -30.0	 30.0;
	81	 80	 0.00065	 0.03481	 0.0	 529.0	 0.0	 0.0	 1.0	 0.0	 1	 -30.0	 30.0;
	82	 80	 0.00043	 0.03113	 0.0	 628.0	 0.0	 0.0	 1.0	 0.0	 1	 -30.0	 30.0;
	407	 80	 0.000818	 0.010825	 0.22813	 1493.89	 0.0	 0.0	 0.0	 0.0	 1	 -30.0	 30.0;
	149	 81	 0.002879	 0.02641	 0.00936	 320.29	 0.0	 0.0	 0.0	 0.0	 1	 -30.0	 30.0;
	84	 83	 0.000638	 0.003655	 0.0	 105.41	 0.0	 0.0	 0.0	 0.0	 1	 -30.0	 30.0;
	83	 342	 0.004116	 0.03952	 0.01276	 320.29	 0.0	 0.0	 0.0	 0.0	 1	 -30.0	 30.0;
	86	 85	 0.000652	 0.003901	 0.0	 30.04	 0.0	 0.0	 0.0	 0.0	 1	 -30.0	 30.0;
	272	 85	 0.004412	 0.04047	 0.01434	 320.29	 0.0	 0.0	 0.0	 0.0	 1	 -30.0	 30.0;
	88	 87	 0.000623	 0.003569	 0.0	 7.69	 0.0	 0.0	 0.0	 0.0	 1	 -30.0	 30.0;
	87	 141	 0.001846	 0.017727	 0.00572	 320.29	 0.0	 0.0	 0.0	 0.0	 1	 -30.0	 30.0;
	87	 143	 0.00382	 0.035043	 0.01242	 320.29	 0.0	 0.0	 0.0	 0.0	 1	 -30.0	 30.0;
	423	 87	 0.001836	 0.017627	 0.00569	 320.29	 0.0	 0.0	 0.0	 0.0	 1	 -30.0	 30.0;
	90	 89	 0.000554	 0.003864	 0.0	 10.48	 0.0	 0.0	 0.0	 0.0	 1	 -30.0	 30.0;
	89	 187	 0.002116	 0.020322	 0.00656	 320.29	 0.0	 0.0	 0.0	 0.0	 1	 -30.0	 30.0;
	89	 457	 0.009012	 0.082666	 0.02929	 320.29	 0.0	 0.0	 0.0	 0.0	 1	 -30.0	 30.0;
	92	 91	 0.000572	 0.003617	 0.0	 104.24	 0.0	 0.0	 0.0	 0.0	 1	 -30.0	 30.0;
	91	 133	 0.00504	 0.048401	 0.01562	 320.29	 0.0	 0.0	 0.0	 0.0	 1	 -30.0	 30.0;
	94	 93	 0.000536	 0.003281	 0.0	 8.18	 0.0	 0.0	 0.0	 0.0	 1	 -30.0	 30.0;
	269	 93	 0.003921	 0.035965	 0.01275	 320.29	 0.0	 0.0	 0.0	 0.0	 1	 -30.0	 30.0;
	336	 93	 0.005795	 0.053155	 0.01884	 320.29	 0.0	 0.0	 0.0	 0.0	 1	 -30.0	 30.0;
	96	 95	 0.000563	 0.003253	 0.0	 56.18	 0.0	 0.0	 0.0	 0.0	 1	 -30.0	 30.0;
	95	 170	 0.002111	 0.020268	 0.00654	 320.29	 0.0	 0.0	 0.0	 0.0	 1	 -30.0	 30.0;
	95	 369	 0.004094	 0.039316	 0.01269	 320.29	 0.0	 0.0	 0.0	 0.0	 1	 -30.0	 30.0;
	98	 97	 0.000569	 0.003986	 0.0	 66.43	 0.0	 0.0	 0.0	 0.0	 1	 -30.0	 30.0;
	181	 97	 0.002992	 0.028734	 0.00928	 320.29	 0.0	 0.0	 0.0	 0.0	 1	 -30.0	 30.0;
	358	 97	 0.002676	 0.024552	 0.0087	 320.29	 0.0	 0.0	 0.0	 0.0	 1	 -30.0	 30.0;
	100	 99	 0.000644	 0.00362	 0.0	 22.69	 0.0	 0.0	 0.0	 0.0	 1	 -30.0	 30.0;
	101	 99	 0.000699	 0.003294	 0.0	 1.37	 0.0	 0.0	 0.0	 0.0	 1	 -30.0	 30.0;
	99	 465	 0.002689	 0.02582	 0.00834	 320.29	 0.0	 0.0	 0.0	 0.0	 1	 -30.0	 30.0;
	472	 99	 0.003318	 0.031864	 0.01029	 320.29	 0.0	 0.0	 0.0	 0.0	 1	 -30.0	 30.0;
	103	 102	 0.000614	 0.003874	 0.0	 64.6	 0.0	 0.0	 0.0	 0.0	 1	 -30.0	 30.0;
	102	 308	 0.00565	 0.054254	 0.01751	 320.29	 0.0	 0.0	 0.0	 0.0	 1	 -30.0	 30.0;
	419	 102	 0.003638	 0.034938	 0.01128	 320.29	 0.0	 0.0	 0.0	 0.0	 1	 -30.0	 30.0;
	105	 104	 0.000673	 0.003751	 0.0	 144.23	 0.0	 0.0	 0.0	 0.0	 1	 -30.0	 30.0;
	104	 191	 0.005177	 0.047485	 0.01683	 320.29	 0.0	 0.0	 0.0	 0.0	 1	 -30.0	 30.0;
	107	 106	 0.000575	 0.003206	 0.0	 24.46	 0.0	 0.0	 0.0	 0.0	 1	 -30.0	 30.0;
	106	 191	 0.004468	 0.042904	 0.01385	 320.29	 0.0	 0.0	 0.0	 0.0	 1	 -30.0	 30.0;
	236	 106	 0.003115	 0.029915	 0.00966	 320.29	 0.0	 0.0	 0.0	 0.0	 1	 -30.0	 30.0;
	109	 108	 0.000658	 0.00301	 0.0	 62.91	 0.0	 0.0	 0.0	 0.0	 1	 -30.0	 30.0;
	108	 472	 0.002033	 0.019521	 0.0063	 320.29	 0.0	 0.0	 0.0	 0.0	 1	 -30.0	 30.0;
	108	 495	 0.003611	 0.034672	 0.01119	 320.29	 0.0	 0.0	 0.0	 0.0	 1	 -30.0	 30.0;
	111	 110	 0.000527	 0.003708	 0.0	 87.02	 0.0	 0.0	 0.0	 0.0	 1	 -30.0	 30.0;
	274	 110	 0.003126	 0.030018	 0.00969	 320.29	 0.0	 0.0	 0.0	 0.0	 1	 -30.0	 30.0;
	110	 316	 0.003439	 0.033025	 0.01066	 320.29	 0.0	 0.0	 0.0	 0.0	 1	 -30.0	 30.0;
	113	 112	 0.000644	 0.003119	 0.0	 72.98	 0.0	 0.0	 0.0	 0.0	 1	 -30.0	 30.0;
	193	 112	 0.002867	 0.027534	 0.00889	 320.29	 0.0	 0.0	 0.0	 0.0	 1	 -30.0	 30.0;
	112	 236	 0.006329	 0.060777	 0.01962	 320.29	 0.0	 0.0	 0.0	 0.0	 1	 -30.0	 30.0;
	112	 283	 0.008619	 0.08276	 0.02672	 320.29	 0.0	 0.0	 0.0	 0.0	 1	 -30.0	 30.0;
	372	 112	 0.002007	 0.019267	 0.00622	 320.29	 0.0	 0.0	 0.0	 0.0	 1	 -30.0	 30.0;
	112	 499	 0.005577	 0.051155	 0.01813	 320.29	 0.0	 0.0	 0.0	 0.0	 1	 -30.0	 30.0;
	115	 114	 0.000506	 0.00336	 0.0	 6.74	 0.0	 0.0	 0.0	 0.0	 1	 -30.0	 30.0;
	116	 114	 0.000505	 0.003411	 0.0	 5.26	 0.0	 0.0	 0.0	 0.0	 1	 -30.0	 30.0;
	114	 191	 0.005557	 0.053364	 0.01723	 320.29	 0.0	 0.0	 0.0	 0.0	 1	 -30.0	 30.0;
	114	 312	 0.006609	 0.063462	 0.02049	 320.29	 0.0	 0.0	 0.0	 0.0	 1	 -30.0	 30.0;
	118	 117	 0.000634	 0.003851	 0.0	 12.8	 0.0	 0.0	 0.0	 0.0	 1	 -30.0	 30.0;
	117	 426	 0.003172	 0.029099	 0.01031	 320.29	 0.0	 0.0	 0.0	 0.0	 1	 -30.0	 30.0;
	490	 117	 0.002999	 0.027508	 0.00975	 320.29	 0.0	 0.0	 0.0	 0.0	 1	 -30.0	 30.0;
	120	 119	 0.000556	 0.003059	 0.0	 46.58	 0.0	 0.0	 0.0	 0.0	 1	 -30.0	 30.0;
	119	 129	 0.00235	 0.021554	 0.00764	 320.29	 0.0	 0.0	 0.0	 0.0	 1	 -30.0	 30.0;
	253	 119	 0.001494	 0.01435	 0.00463	 320.29	 0.0	 0.0	 0.0	 0.0	 1	 -30.0	 30.0;
	122	 121	 0.000555	 0.003846	 0.0	 70.42	 0.0	 0.0	 0.0	 0.0	 1	 -30.0	 30.0;
	121	 276	 0.002548	 0.024463	 0.0079	 320.29	 0.0	 0.0	 0.0	 0.0	 1	 -30.0	 30.0;
	121	 287	 0.007088	 0.068058	 0.02197	 320.29	 0.0	 0.0	 0.0	 0.0	 1	 -30.0	 30.0;
	124	 123	 0.0002	 0.01438	 0.0	 488.0	 0.0	 0.0	 1.0	 0.0	 1	 -30.0	 30.0;
	125	 123	 0.00028	 0.04064	 0.0	 346.0	 0.0	 0.0	 1.0	 0.0	 1	 -30.0	 30.0;
	126	 123	 0.00015	 0.02189	 0.0	 352.0	 0.0	 0.0	 1.0	 0.0	 1	 -30.0	 30.0;
...
];

% INFO    : === Translation Options ===
% INFO    : Load Model:                  from file ./pglib_opf_case500_tamu.m.api.sol
% INFO    : Gen Active Capacity Model:   stat
% INFO    : Gen Reactive Capacity Model: al50ag
% INFO    : Gen Active Cost Model:       stat
% INFO    : 
% INFO    : === Load Replacement Notes ===
% INFO    : Bus 2	: Pd=42.8, Qd=11.41 -> Pd=54.27, Qd=11.41
% INFO    : Bus 4	: Pd=132.69, Qd=35.38 -> Pd=168.25, Qd=35.38
% INFO    : Bus 6	: Pd=3.21, Qd=0.86 -> Pd=4.07, Qd=0.86
% INFO    : Bus 11	: Pd=2.47, Qd=0.66 -> Pd=3.13, Qd=0.66
% INFO    : Bus 13	: Pd=37.16, Qd=9.91 -> Pd=47.12, Qd=9.91
% INFO    : Bus 20	: Pd=4.54, Qd=1.21 -> Pd=5.76, Qd=1.21
% INFO    : Bus 22	: Pd=148.7, Qd=39.65 -> Pd=188.55, Qd=39.65
% INFO    : Bus 25	: Pd=2.28, Qd=0.61 -> Pd=2.89, Qd=0.61
% INFO    : Bus 26	: Pd=21.66, Qd=5.78 -> Pd=27.46, Qd=5.78
% INFO    : Bus 28	: Pd=62.93, Qd=16.78 -> Pd=79.79, Qd=16.78
% INFO    : Bus 30	: Pd=99.97, Qd=26.66 -> Pd=126.76, Qd=26.66
% INFO    : Bus 32	: Pd=9.76, Qd=2.6 -> Pd=12.38, Qd=2.60
% INFO    : Bus 34	: Pd=25.0, Qd=6.67 -> Pd=31.70, Qd=6.67
% INFO    : Bus 36	: Pd=43.35, Qd=11.56 -> Pd=54.97, Qd=11.56
% INFO    : Bus 38	: Pd=0.13, Qd=0.03 -> Pd=0.16, Qd=0.03
% INFO    : Bus 41	: Pd=57.99, Qd=15.46 -> Pd=73.53, Qd=15.46
% INFO    : Bus 43	: Pd=4.46, Qd=1.19 -> Pd=5.66, Qd=1.19
% INFO    : Bus 45	: Pd=2.03, Qd=0.54 -> Pd=2.57, Qd=0.54
% INFO    : Bus 47	: Pd=43.41, Qd=11.58 -> Pd=55.04, Qd=11.58
% INFO    : Bus 51	: Pd=0.35, Qd=0.09 -> Pd=0.44, Qd=0.09
% INFO    : Bus 52	: Pd=23.39, Qd=6.24 -> Pd=29.66, Qd=6.24
% INFO    : Bus 54	: Pd=34.81, Qd=9.28 -> Pd=44.14, Qd=9.28
% INFO    : Bus 56	: Pd=2.25, Qd=0.6 -> Pd=2.85, Qd=0.60
% INFO    : Bus 59	: Pd=140.94, Qd=37.58 -> Pd=178.71, Qd=37.58
% INFO    : Bus 61	: Pd=0.2, Qd=0.05 -> Pd=0.25, Qd=0.05
% INFO    : Bus 64	: Pd=34.78, Qd=9.27 -> Pd=44.10, Qd=9.27
% INFO    : Bus 67	: Pd=4.57, Qd=1.22 -> Pd=5.79, Qd=1.22
% INFO    : Bus 69	: Pd=16.96, Qd=4.52 -> Pd=21.51, Qd=4.52
% INFO    : Bus 75	: Pd=5.3, Qd=1.41 -> Pd=6.72, Qd=1.41
% INFO    : Bus 77	: Pd=6.95, Qd=1.85 -> Pd=8.81, Qd=1.85
% INFO    : Bus 79	: Pd=0.38, Qd=0.1 -> Pd=0.48, Qd=0.10
% INFO    : Bus 84	: Pd=61.41, Qd=16.38 -> Pd=77.87, Qd=16.38
% INFO    : Bus 86	: Pd=17.59, Qd=4.69 -> Pd=22.30, Qd=4.69
% INFO    : Bus 88	: Pd=5.25, Qd=1.4 -> Pd=6.66, Qd=1.40
% INFO    : Bus 90	: Pd=5.9, Qd=1.57 -> Pd=7.48, Qd=1.57
% INFO    : Bus 92	: Pd=65.03, Qd=17.34 -> Pd=82.46, Qd=17.34
% INFO    : Bus 94	: Pd=5.21, Qd=1.39 -> Pd=6.61, Qd=1.39
% INFO    : Bus 96	: Pd=34.0, Qd=9.07 -> Pd=43.11, Qd=9.07
% INFO    : Bus 98	: Pd=37.09, Qd=9.89 -> Pd=47.03, Qd=9.89
% INFO    : Bus 100	: Pd=13.52, Qd=3.61 -> Pd=17.14, Qd=3.61
% INFO    : Bus 101	: Pd=0.89, Qd=0.24 -> Pd=1.13, Qd=0.24
% INFO    : Bus 103	: Pd=38.8, Qd=10.35 -> Pd=49.20, Qd=10.35
% INFO    : Bus 105	: Pd=80.33, Qd=21.42 -> Pd=101.86, Qd=21.42
% INFO    : Bus 107	: Pd=16.01, Qd=4.27 -> Pd=20.30, Qd=4.27
% INFO    : Bus 109	: Pd=47.58, Qd=12.69 -> Pd=60.33, Qd=12.69
% INFO    : Bus 111	: Pd=62.29, Qd=16.61 -> Pd=78.98, Qd=16.61
% INFO    : Bus 113	: Pd=45.99, Qd=12.26 -> Pd=58.31, Qd=12.26
% INFO    : Bus 115	: Pd=5.06, Qd=1.35 -> Pd=6.42, Qd=1.35
% INFO    : Bus 116	: Pd=3.1, Qd=0.83 -> Pd=3.93, Qd=0.83
% INFO    : Bus 118	: Pd=8.83, Qd=2.36 -> Pd=11.20, Qd=2.36
% INFO    : Bus 120	: Pd=31.65, Qd=8.44 -> Pd=40.13, Qd=8.44
% INFO    : Bus 122	: Pd=53.36, Qd=14.23 -> Pd=67.66, Qd=14.23
% INFO    : Bus 130	: Pd=103.24, Qd=27.53 -> Pd=130.91, Qd=27.53
% INFO    : Bus 132	: Pd=25.2, Qd=6.72 -> Pd=31.95, Qd=6.72
% INFO    : Bus 134	: Pd=42.65, Qd=11.37 -> Pd=54.08, Qd=11.37
% INFO    : Bus 136	: Pd=26.76, Qd=7.14 -> Pd=33.93, Qd=7.14
% INFO    : Bus 138	: Pd=78.71, Qd=20.99 -> Pd=99.80, Qd=20.99
% INFO    : Bus 140	: Pd=0.26, Qd=0.07 -> Pd=0.33, Qd=0.07
% INFO    : Bus 142	: Pd=161.34, Qd=43.02 -> Pd=204.58, Qd=43.02
% INFO    : Bus 148	: Pd=57.42, Qd=15.31 -> Pd=72.81, Qd=15.31
% INFO    : Bus 150	: Pd=1.5, Qd=0.4 -> Pd=1.90, Qd=0.40
% INFO    : Bus 153	: Pd=93.15, Qd=24.84 -> Pd=118.11, Qd=24.84
% INFO    : Bus 155	: Pd=66.84, Qd=17.82 -> Pd=84.75, Qd=17.82
% INFO    : Bus 157	: Pd=105.45, Qd=28.12 -> Pd=133.71, Qd=28.12
% INFO    : Bus 159	: Pd=22.85, Qd=6.09 -> Pd=28.97, Qd=6.09
% INFO    : Bus 161	: Pd=25.95, Qd=6.92 -> Pd=32.90, Qd=6.92
% INFO    : Bus 164	: Pd=98.15, Qd=26.17 -> Pd=124.45, Qd=26.17
% INFO    : Bus 171	: Pd=12.38, Qd=3.3 -> Pd=15.70, Qd=3.30
% INFO    : Bus 173	: Pd=3.14, Qd=0.84 -> Pd=3.98, Qd=0.84
% INFO    : Bus 174	: Pd=7.3, Qd=1.95 -> Pd=9.26, Qd=1.95
% INFO    : Bus 177	: Pd=8.78, Qd=2.34 -> Pd=11.13, Qd=2.34
% INFO    : Bus 178	: Pd=6.81, Qd=1.82 -> Pd=8.63, Qd=1.82
% INFO    : Bus 180	: Pd=14.14, Qd=3.77 -> Pd=17.93, Qd=3.77
% INFO    : Bus 182	: Pd=82.61, Qd=22.03 -> Pd=104.75, Qd=22.03
% INFO    : Bus 184	: Pd=30.18, Qd=8.05 -> Pd=38.27, Qd=8.05
% INFO    : Bus 186	: Pd=45.35, Qd=12.09 -> Pd=57.50, Qd=12.09
% INFO    : Bus 188	: Pd=11.05, Qd=2.95 -> Pd=14.01, Qd=2.95
% INFO    : Bus 190	: Pd=14.07, Qd=3.75 -> Pd=17.84, Qd=3.75
% INFO    : Bus 192	: Pd=16.44, Qd=4.38 -> Pd=20.85, Qd=4.38
% INFO    : Bus 194	: Pd=28.69, Qd=7.65 -> Pd=36.38, Qd=7.65
% INFO    : Bus 199	: Pd=86.39, Qd=23.04 -> Pd=109.54, Qd=23.04
% INFO    : Bus 201	: Pd=8.89, Qd=2.37 -> Pd=11.27, Qd=2.37
% INFO    : Bus 203	: Pd=4.69, Qd=1.25 -> Pd=5.95, Qd=1.25
% INFO    : Bus 204	: Pd=45.67, Qd=12.18 -> Pd=57.91, Qd=12.18
% INFO    : Bus 206	: Pd=3.01, Qd=0.8 -> Pd=3.82, Qd=0.80
% INFO    : Bus 207	: Pd=22.57, Qd=6.02 -> Pd=28.62, Qd=6.02
% INFO    : Bus 209	: Pd=81.85, Qd=21.83 -> Pd=103.78, Qd=21.83
% INFO    : Bus 211	: Pd=34.28, Qd=9.14 -> Pd=43.47, Qd=9.14
% INFO    : Bus 213	: Pd=97.48, Qd=26.0 -> Pd=123.60, Qd=26.00
% INFO    : Bus 215	: Pd=84.48, Qd=22.53 -> Pd=107.12, Qd=22.53
% INFO    : Bus 217	: Pd=55.1, Qd=14.69 -> Pd=69.87, Qd=14.69
% INFO    : Bus 219	: Pd=0.33, Qd=0.09 -> Pd=0.42, Qd=0.09
% INFO    : Bus 227	: Pd=5.42, Qd=1.45 -> Pd=6.87, Qd=1.45
% INFO    : Bus 229	: Pd=54.09, Qd=14.42 -> Pd=68.59, Qd=14.42
% INFO    : Bus 234	: Pd=59.96, Qd=15.99 -> Pd=76.03, Qd=15.99
% INFO    : Bus 237	: Pd=2.71, Qd=0.72 -> Pd=3.44, Qd=0.72
% INFO    : Bus 239	: Pd=39.13, Qd=10.44 -> Pd=49.62, Qd=10.44
% INFO    : Bus 241	: Pd=19.74, Qd=5.26 -> Pd=25.03, Qd=5.26
% INFO    : Bus 243	: Pd=74.47, Qd=19.86 -> Pd=94.43, Qd=19.86
% INFO    : Bus 245	: Pd=11.83, Qd=3.16 -> Pd=15.00, Qd=3.16
% INFO    : Bus 252	: Pd=118.68, Qd=31.65 -> Pd=150.48, Qd=31.65
% INFO    : Bus 259	: Pd=8.16, Qd=2.18 -> Pd=10.35, Qd=2.18
% INFO    : Bus 261	: Pd=18.68, Qd=4.98 -> Pd=23.69, Qd=4.98
% INFO    : Bus 266	: Pd=61.78, Qd=16.48 -> Pd=78.34, Qd=16.48
% INFO    : Bus 268	: Pd=117.15, Qd=31.24 -> Pd=148.54, Qd=31.24
% INFO    : Bus 270	: Pd=6.8, Qd=1.81 -> Pd=8.62, Qd=1.81
% INFO    : Bus 273	: Pd=9.49, Qd=2.53 -> Pd=12.03, Qd=2.53
% INFO    : Bus 277	: Pd=0.41, Qd=0.11 -> Pd=0.52, Qd=0.11
% INFO    : Bus 278	: Pd=5.77, Qd=1.54 -> Pd=7.32, Qd=1.54
% INFO    : Bus 280	: Pd=16.94, Qd=4.52 -> Pd=21.48, Qd=4.52
% INFO    : Bus 282	: Pd=117.3, Qd=31.28 -> Pd=148.73, Qd=31.28
% INFO    : Bus 284	: Pd=32.65, Qd=8.71 -> Pd=41.40, Qd=8.71
% INFO    : Bus 286	: Pd=8.27, Qd=2.2 -> Pd=10.49, Qd=2.20
% INFO    : Bus 288	: Pd=58.11, Qd=15.5 -> Pd=73.68, Qd=15.50
% INFO    : Bus 290	: Pd=3.69, Qd=0.98 -> Pd=4.68, Qd=0.98
% INFO    : Bus 292	: Pd=7.62, Qd=2.03 -> Pd=9.66, Qd=2.03
% INFO    : Bus 294	: Pd=25.6, Qd=6.83 -> Pd=32.46, Qd=6.83
% INFO    : Bus 296	: Pd=7.79, Qd=2.08 -> Pd=9.88, Qd=2.08
% INFO    : Bus 299	: Pd=14.57, Qd=3.88 -> Pd=18.47, Qd=3.88
% INFO    : Bus 303	: Pd=86.76, Qd=23.14 -> Pd=110.01, Qd=23.14
% INFO    : Bus 307	: Pd=76.04, Qd=20.28 -> Pd=96.42, Qd=20.28
% INFO    : Bus 309	: Pd=9.03, Qd=2.41 -> Pd=11.45, Qd=2.41
% INFO    : Bus 311	: Pd=43.83, Qd=11.69 -> Pd=55.58, Qd=11.69
% INFO    : Bus 313	: Pd=12.44, Qd=3.32 -> Pd=15.77, Qd=3.32
% INFO    : Bus 315	: Pd=0.43, Qd=0.11 -> Pd=0.55, Qd=0.11
% INFO    : Bus 317	: Pd=3.75, Qd=1.0 -> Pd=4.75, Qd=1.00
% INFO    : Bus 321	: Pd=150.42, Qd=40.11 -> Pd=190.73, Qd=40.11
% INFO    : Bus 323	: Pd=45.27, Qd=12.07 -> Pd=57.40, Qd=12.07
% INFO    : Bus 325	: Pd=103.46, Qd=27.59 -> Pd=131.19, Qd=27.59
% INFO    : Bus 327	: Pd=121.07, Qd=32.28 -> Pd=153.52, Qd=32.28
% INFO    : Bus 329	: Pd=26.02, Qd=6.94 -> Pd=32.99, Qd=6.94
% INFO    : Bus 331	: Pd=57.17, Qd=15.25 -> Pd=72.49, Qd=15.25
% INFO    : Bus 334	: Pd=0.5, Qd=0.13 -> Pd=0.63, Qd=0.13
% INFO    : Bus 335	: Pd=0.83, Qd=0.22 -> Pd=1.05, Qd=0.22
% INFO    : Bus 337	: Pd=5.67, Qd=1.51 -> Pd=7.19, Qd=1.51
% INFO    : Bus 339	: Pd=75.1, Qd=20.03 -> Pd=95.23, Qd=20.03
...